@<TRIPOS>MOLECULE
bader.pqr
 63 8 0 0 0
SMALL
GASTEIGER

@<TRIPOS>ATOM
      1 MG          0.0000    0.0000    0.0000 Du      1  MOL1       -0.1271
      2 MG          4.7710    8.2660    5.1640 Du      1  MOL1        0.0179
      3 MG          0.0240    0.0200   10.7920 Du      1  MOL1       -0.8408
      4 MG         -1.5930    2.7590    0.0000 Du      1  MOL1        0.0235
      5 MG         -1.5930    2.7600    5.1390 Du      1  MOL1        0.1609
      6 MG          7.8950    2.7560   10.1810 Du      1  MOL1       -0.0442
      7 MG         -3.1850    5.5170    0.0000 Du      1  MOL1       -0.0525
      8 MG          6.3590    5.5110    5.1520 Du      1  MOL1        0.1506
      9 MG         -3.1570    5.5610   10.2560 Du      1  MOL1        0.0591
     10 MG          3.1850    0.0000    0.0000 Du      1  MOL1       -0.0492
     11 MG         -1.5950    8.2660    5.1320 Du      1  MOL1        0.0652
     12 MG         -1.6370    8.2650   10.0720 Du      1  MOL1        0.5485
     13 MG          1.5930    2.7590    0.0000 Du      1  MOL1       -0.0168
     14 MG          1.5870    2.7410    5.1190 Du      1  MOL1        0.1168
     15 MG          1.5200    2.6800   10.1590 Du      1  MOL1        0.2027
     16 MG         -0.0000    5.5170    0.0000 Du      1  MOL1       -0.0738
     17 MG         -0.0140    5.5170    5.1530 Du      1  MOL1       -0.0646
     18 MG         -0.1280    5.5690   10.7570 Du      1  MOL1       -0.6580
     19 MG          6.3710    0.0000    0.0000 Du      1  MOL1        0.0272
     20 MG          1.5970    8.2600    5.1460 Du      1  MOL1        0.0673
     21 MG          6.3970    0.0240   10.2210 Du      1  MOL1        0.6215
     22 MG          4.7780    2.7590    0.0000 Du      1  MOL1       -0.0797
     23 MG          4.7720    2.7700    5.1820 Du      1  MOL1       -0.1093
     24 MG          4.8090    2.6010   10.6580 Du      1  MOL1       -0.7270
     25 MG          3.1850    5.5170    0.0000 Du      1  MOL1       -0.0817
     26 MG          3.2040    5.5160    5.1760 Du      1  MOL1       -0.0390
     27 MG          3.1800    5.5160   10.6500 Du      1  MOL1       -1.0093
     28 MG          0.0000    1.8390    2.6040 Du      1  MOL1       -0.0361
     29 MG         -0.0290    1.8070    7.6970 Du      1  MOL1       -0.2483
     30 MG         -1.5930    4.5980    2.6040 Du      1  MOL1        0.0012
     31 MG         -1.5650    4.6110    7.7200 Du      1  MOL1       -0.1899
     32 MG         -3.1850    7.3560    2.6040 Du      1  MOL1       -0.0154
     33 MG         -3.2170    7.3420    7.6620 Du      1  MOL1        0.0691
     34 MG          3.1850    1.8390    2.6040 Du      1  MOL1        0.0401
     35 MG          3.1840    1.8630    7.6860 Du      1  MOL1       -0.0680
     36 MG          1.5930    4.5980    2.6040 Du      1  MOL1        0.0333
     37 MG          1.5950    4.5920    7.6420 Du      1  MOL1        0.1973
     38 MG          0.0000    7.3560    2.6040 Du      1  MOL1        0.0251
     39 MG          0.0240    7.3060    7.7080 Du      1  MOL1        0.0276
     40 MG          6.3710    1.8390    2.6040 Du      1  MOL1       -0.0672
     41 MG          6.3470    1.8210    7.6720 Du      1  MOL1        0.0393
     42 MG          4.7780    4.5980    2.6040 Du      1  MOL1       -0.0025
     43 MG          4.7430    4.5470    7.8840 Du      1  MOL1       -0.1532
     44 MG          3.1850    7.3560    2.6040 Du      1  MOL1        0.0305
     45 MG          3.2170    7.3050    7.8290 Du      1  MOL1       -0.0803
     46  O         -4.7370    8.2660   12.9220 O.3     1  MOL1        1.3579
     47  O         -1.7800    8.0660   13.4680 O.3     1  MOL1        1.2333
     48  O          7.5080    1.7670   13.5760 O.3     1  MOL1        1.2048
     49  O          4.3590    2.7020   12.7090 O.3     1  MOL1        1.3541
     50  O          3.3600    5.0350   12.5770 O.3     1  MOL1        1.3456
     51  O          0.2320    5.7860   12.8320 O.3     1  MOL1        1.3405
     52  H          8.9480    0.6030   13.3620 H       1  MOL1       -0.6405
     53  H          0.9120    0.0540   13.3790 H       1  MOL1       -0.6304
     54  H          3.3780    0.6870   13.3180 H       1  MOL1       -0.6208
     55  H         -1.9600    7.7370   12.5480 H       1  MOL1       -0.4798
     56  H          7.8870    2.6690   13.6170 H       1  MOL1       -0.5780
     57  H          7.2410    1.6730   12.6190 H       1  MOL1       -0.4905
     58  H          3.9320    3.6830   12.7970 H       1  MOL1       -0.6330
     59  H          5.1210    2.6280   13.3190 H       1  MOL1       -0.5936
     60  H          3.9730    5.6460   13.0290 H       1  MOL1       -0.5377
     61  H          1.4880    4.5310   10.6520 H       1  MOL1        0.9405
     62  H         -0.1830    6.5510   13.2930 H       1  MOL1       -0.6308
     63  H          1.1770    5.7070   13.1040 H       1  MOL1       -0.6326
@<TRIPOS>BOND
     1    55    47    1
     2    50    60    1
     3    57    48    1
     4    49    58    1
     5    49    59    1
     6    51    63    1
     7    51    62    1
     8    48    56    1
