@<TRIPOS>MOLECULE
bader.pqr
 63 9 0 0 0
SMALL
GASTEIGER

@<TRIPOS>ATOM
      1 MG          0.0000    0.0000    0.0000 Du      1  MOL1       -0.1217
      2 MG          4.7640    8.2610    5.1590 Du      1  MOL1        0.0436
      3 MG          9.5390    0.0240   10.7960 Du      1  MOL1       -0.8243
      4 MG         -1.5930    2.7590    0.0000 Du      1  MOL1        0.0166
      5 MG          7.9570    2.7530    5.1380 Du      1  MOL1        0.1456
      6 MG          7.8660    2.7330   10.1270 Du      1  MOL1        0.0973
      7 MG         -3.1850    5.5170    0.0000 Du      1  MOL1       -0.0490
      8 MG          6.3560    5.5020    5.1460 Du      1  MOL1        0.1622
      9 MG          6.3320    5.5640   10.2420 Du      1  MOL1        0.0848
     10 MG          3.1850    0.0000    0.0000 Du      1  MOL1       -0.0403
     11 MG         -1.5980    8.2620    5.1290 Du      1  MOL1        0.0743
     12 MG         -1.6690    8.2550   10.0720 Du      1  MOL1        0.5491
     13 MG          1.5930    2.7590    0.0000 Du      1  MOL1        0.0016
     14 MG          1.5840    2.7390    5.1200 Du      1  MOL1        0.1385
     15 MG          1.4970    2.6810   10.1710 Du      1  MOL1        0.1677
     16 MG         -0.0000    5.5170    0.0000 Du      1  MOL1       -0.0719
     17 MG         -0.0180    5.5110    5.1530 Du      1  MOL1       -0.0707
     18 MG         -0.1950    5.5380   10.7820 Du      1  MOL1       -0.6844
     19 MG          6.3710    0.0000    0.0000 Du      1  MOL1        0.0181
     20 MG          1.5940    8.2540    5.1440 Du      1  MOL1        0.0503
     21 MG          6.3380    0.0030   10.2390 Du      1  MOL1        0.5832
     22 MG          4.7780    2.7590    0.0000 Du      1  MOL1       -0.0814
     23 MG          4.7660    2.7620    5.1810 Du      1  MOL1       -0.1209
     24 MG          4.7760    2.6140   10.6330 Du      1  MOL1       -0.7617
     25 MG          3.1850    5.5170    0.0000 Du      1  MOL1       -0.0962
     26 MG          3.2000    5.5130    5.1840 Du      1  MOL1       -0.0719
     27 MG          3.0920    5.5390   10.7280 Du      1  MOL1       -1.0307
     28 MG          0.0000    1.8390    2.6040 Du      1  MOL1       -0.0147
     29 MG         -0.0280    1.7990    7.6910 Du      1  MOL1       -0.2643
     30 MG         -1.5930    4.5980    2.6040 Du      1  MOL1       -0.0019
     31 MG         -1.5820    4.6080    7.7190 Du      1  MOL1       -0.2650
     32 MG         -3.1850    7.3560    2.6040 Du      1  MOL1       -0.0157
     33 MG         -3.2290    7.3290    7.6470 Du      1  MOL1        0.0927
     34 MG          3.1850    1.8390    2.6040 Du      1  MOL1       -0.0072
     35 MG          3.1720    1.8520    7.6900 Du      1  MOL1       -0.0583
     36 MG          1.5930    4.5980    2.6040 Du      1  MOL1        0.0303
     37 MG          1.5800    4.5880    7.6510 Du      1  MOL1        0.1933
     38 MG          0.0000    7.3560    2.6040 Du      1  MOL1        0.0279
     39 MG          0.0090    7.2960    7.7050 Du      1  MOL1        0.1189
     40 MG          6.3710    1.8390    2.6040 Du      1  MOL1       -0.0457
     41 MG          6.3290    1.8020    7.6610 Du      1  MOL1        0.0355
     42 MG          4.7780    4.5980    2.6040 Du      1  MOL1       -0.0076
     43 MG          4.7200    4.5370    7.8820 Du      1  MOL1       -0.1470
     44 MG          3.1850    7.3560    2.6040 Du      1  MOL1        0.0222
     45 MG          3.2060    7.3040    7.8500 Du      1  MOL1       -0.1224
     46  O          9.4620    0.0830   12.9310 O.3     1  MOL1        1.3680
     47  O         -1.9380    7.9860   13.4650 O.3     1  MOL1        1.1922
     48  O          7.4800    2.0090   13.4800 O.3     1  MOL1        1.2197
     49  O          4.4040    2.8470   12.6590 O.3     1  MOL1        1.3696
     50  O          3.2410    5.0690   12.6480 O.3     1  MOL1        1.3476
     51  O         -0.2040    5.6800   12.9090 O.3     1  MOL1        1.3213
     52  H          8.8560    0.7700   13.3190 H       1  MOL1       -0.6507
     53  H          0.7590    0.0910   13.4210 H       1  MOL1       -0.6297
     54  H          3.2960    0.5800   13.4270 H       1  MOL1       -0.5810
     55  H         -2.1660    7.8100   12.5090 H       1  MOL1       -0.4713
     56  H          7.8730    2.9030   13.3900 H       1  MOL1       -0.5811
     57  H          7.1740    1.8040   12.5520 H       1  MOL1       -0.4933
     58  H          3.9260    3.8160   12.7870 H       1  MOL1       -0.6315
     59  H          5.1860    2.7940   13.2440 H       1  MOL1       -0.6019
     60  H          3.6510    5.7430   13.2170 H       1  MOL1       -0.5460
     61  H          1.4150    4.4930   10.7820 H       1  MOL1        0.9376
     62  H         -0.6790    6.4600   13.2930 H       1  MOL1       -0.6348
     63  H          0.6760    5.6070   13.3340 H       1  MOL1       -0.6136
@<TRIPOS>BOND
     1    55    47    1
     2    57    48    1
     3    50    60    1
     4    49    58    1
     5    49    59    1
     6    51    62    1
     7    51    63    1
     8    46    52    1
     9    56    48    1
