@<TRIPOS>MOLECULE
bader.pqr
 63 9 0 0 0
SMALL
GASTEIGER

@<TRIPOS>ATOM
      1 MG          0.0000    0.0000    0.0000 Du      1  MOL1       -0.1221
      2 MG          4.7680    8.2730    5.1630 Du      1  MOL1        0.0214
      3 MG          0.0090    0.0390   10.7850 Du      1  MOL1       -0.8286
      4 MG         -1.5930    2.7590    0.0000 Du      1  MOL1        0.0163
      5 MG         -1.5940    2.7640    5.1400 Du      1  MOL1        0.1265
      6 MG          7.8730    2.7800   10.1830 Du      1  MOL1       -0.0097
      7 MG         -3.1850    5.5170    0.0000 Du      1  MOL1       -0.0623
      8 MG          6.3590    5.5180    5.1520 Du      1  MOL1        0.1234
      9 MG         -3.1500    5.5850   10.2350 Du      1  MOL1        0.0546
     10 MG          3.1850    0.0000    0.0000 Du      1  MOL1       -0.0419
     11 MG         -1.5940    8.2730    5.1290 Du      1  MOL1        0.0859
     12 MG          3.1280    0.0250   10.0670 Du      1  MOL1        0.5606
     13 MG          1.5930    2.7590    0.0000 Du      1  MOL1       -0.0194
     14 MG          1.5840    2.7450    5.1210 Du      1  MOL1        0.0981
     15 MG          1.5060    2.7060   10.1690 Du      1  MOL1        0.1692
     16 MG         -0.0000    5.5170    0.0000 Du      1  MOL1       -0.0759
     17 MG         -0.0150    5.5250    5.1520 Du      1  MOL1       -0.0597
     18 MG         -0.1370    5.6000   10.7570 Du      1  MOL1       -0.6768
     19 MG          6.3710    0.0000    0.0000 Du      1  MOL1        0.0252
     20 MG          1.5940    8.2650    5.1480 Du      1  MOL1        0.0670
     21 MG          6.3940    0.0360   10.2230 Du      1  MOL1        0.5445
     22 MG          4.7780    2.7590    0.0000 Du      1  MOL1       -0.0732
     23 MG          4.7700    2.7740    5.1820 Du      1  MOL1       -0.1218
     24 MG          4.7960    2.6210   10.7060 Du      1  MOL1       -0.7190
     25 MG          3.1850    5.5170    0.0000 Du      1  MOL1       -0.0755
     26 MG          3.2050    5.5220    5.1710 Du      1  MOL1       -0.0276
     27 MG          3.1570    5.5210   10.5920 Du      1  MOL1       -1.0184
     28 MG          0.0000    1.8390    2.6040 Du      1  MOL1       -0.0297
     29 MG         -0.0340    1.8150    7.7070 Du      1  MOL1       -0.2529
     30 MG         -1.5930    4.5980    2.6040 Du      1  MOL1        0.0063
     31 MG         -1.5610    4.6190    7.7150 Du      1  MOL1       -0.1629
     32 MG         -3.1850    7.3560    2.6040 Du      1  MOL1       -0.0080
     33 MG         -3.2180    7.3590    7.6560 Du      1  MOL1        0.0498
     34 MG          3.1850    1.8390    2.6040 Du      1  MOL1        0.0327
     35 MG          3.1800    1.8810    7.6890 Du      1  MOL1       -0.0573
     36 MG          1.5930    4.5980    2.6040 Du      1  MOL1        0.0216
     37 MG          1.5980    4.6040    7.6380 Du      1  MOL1        0.2262
     38 MG          0.0000    7.3560    2.6040 Du      1  MOL1        0.0127
     39 MG          0.0170    7.3160    7.7170 Du      1  MOL1       -0.0075
     40 MG          6.3710    1.8390    2.6040 Du      1  MOL1       -0.0579
     41 MG          6.3420    1.8290    7.6740 Du      1  MOL1        0.0663
     42 MG          4.7780    4.5980    2.6040 Du      1  MOL1       -0.0081
     43 MG          4.7480    4.5590    7.8720 Du      1  MOL1       -0.0845
     44 MG          3.1850    7.3560    2.6040 Du      1  MOL1        0.0439
     45 MG          3.2160    7.3140    7.8250 Du      1  MOL1       -0.0900
     46  O          0.0270    0.0000   12.9230 O.3     1  MOL1        1.3479
     47  O         -1.7460    8.0480   13.4510 O.3     1  MOL1        1.2423
     48  O          7.4670    1.7820   13.5720 O.3     1  MOL1        1.1954
     49  O          4.4060    2.5320   12.7910 O.3     1  MOL1        1.3593
     50  O          3.6080    4.8950   12.4210 O.3     1  MOL1        1.3960
     51  O          0.0880    5.8530   12.8550 O.3     1  MOL1        1.3290
     52  H          8.9270    0.5980   13.3690 H       1  MOL1       -0.6325
     53  H          0.8900    0.0640   13.3920 H       1  MOL1       -0.6275
     54  H          3.4230    0.6710   13.3310 H       1  MOL1       -0.6146
     55  H         -2.0010    7.7840   12.5250 H       1  MOL1       -0.4953
     56  H          7.8590    2.6780   13.6280 H       1  MOL1       -0.5806
     57  H          7.2510    1.6870   12.6010 H       1  MOL1       -0.4735
     58  H          4.0400    3.5370   12.8250 H       1  MOL1       -0.6432
     59  H          5.2020    2.4620   13.3600 H       1  MOL1       -0.5965
     60  H          4.2270    5.5090   12.8590 H       1  MOL1       -0.5577
     61  H          1.4650    4.5450   10.7240 H       1  MOL1        0.9397
     62  H         -0.3760    6.6270   13.2650 H       1  MOL1       -0.6319
     63  H          1.0050    5.8190   13.1990 H       1  MOL1       -0.6183
@<TRIPOS>BOND
     1    50    60    1
     2    55    47    1
     3    57    48    1
     4    49    58    1
     5    49    59    1
     6    51    63    1
     7    51    62    1
     8    46    53    1
     9    48    56    1
