@<TRIPOS>MOLECULE
bader.pqr
 63 8 0 0 0
SMALL
GASTEIGER

@<TRIPOS>ATOM
      1 MG          0.0000    0.0000    0.0000 Du      1  MOL1       -0.1009
      2 MG          4.7760    8.2710    5.2060 Du      1  MOL1        0.0620
      3 MG         -0.0120    0.0550   10.8280 Du      1  MOL1       -0.7899
      4 MG         -1.5930    2.7590    0.0000 Du      1  MOL1        0.0177
      5 MG         -1.5930    2.7680    5.1980 Du      1  MOL1        0.0206
      6 MG          7.9490    2.7360   10.2450 Du      1  MOL1        0.1152
      7 MG         -3.1850    5.5170    0.0000 Du      1  MOL1       -0.0362
      8 MG         -3.1750    5.5260    5.1730 Du      1  MOL1        0.1036
      9 MG         -3.1690    5.5150   10.3360 Du      1  MOL1       -0.4483
     10 MG          3.1850    0.0000    0.0000 Du      1  MOL1       -0.0412
     11 MG          3.1890    0.0030    5.1840 Du      1  MOL1        0.0772
     12 MG          3.1500    0.0030   10.1970 Du      1  MOL1        0.3824
     13 MG          1.5930    2.7590    0.0000 Du      1  MOL1       -0.0342
     14 MG          1.5970    2.7500    5.1700 Du      1  MOL1        0.0487
     15 MG          1.5380    2.6940   10.2950 Du      1  MOL1        0.1929
     16 MG         -0.0000    5.5170    0.0000 Du      1  MOL1       -0.1009
     17 MG         -0.0080    5.5240    5.1910 Du      1  MOL1       -0.0199
     18 MG         -0.0990    5.5090   10.8500 Du      1  MOL1       -0.7358
     19 MG          6.3710    0.0000    0.0000 Du      1  MOL1       -0.0443
     20 MG          1.5910    8.2710    5.1960 Du      1  MOL1        0.0710
     21 MG          6.3840    0.0120   10.3290 Du      1  MOL1        0.0186
     22 MG          4.7780    2.7590    0.0000 Du      1  MOL1       -0.1002
     23 MG          4.7730    2.7580    5.2050 Du      1  MOL1       -0.1189
     24 MG          4.7480    2.6080   10.9460 Du      1  MOL1       -0.7786
     25 MG          3.1850    5.5170    0.0000 Du      1  MOL1       -0.0286
     26 MG          3.1890    5.5300    5.1590 Du      1  MOL1        0.0332
     27 MG          3.1280    5.5570   10.2940 Du      1  MOL1       -0.2567
     28 MG          0.0000    1.8390    2.6040 Du      1  MOL1       -0.0435
     29 MG          0.0000    1.8230    7.7620 Du      1  MOL1       -0.1566
     30 MG         -1.5930    4.5980    2.6040 Du      1  MOL1        0.0339
     31 MG         -1.5680    4.6160    7.8050 Du      1  MOL1       -0.1939
     32 MG         -3.1850    7.3560    2.6040 Du      1  MOL1        0.0016
     33 MG         -3.2200    7.3550    7.7710 Du      1  MOL1       -0.2269
     34 MG          3.1850    1.8390    2.6040 Du      1  MOL1       -0.0142
     35 MG          3.2100    1.8960    7.7920 Du      1  MOL1       -0.2765
     36 MG          1.5930    4.5980    2.6040 Du      1  MOL1        0.0418
     37 MG          1.5950    4.5960    7.6880 Du      1  MOL1        0.1962
     38 MG          0.0000    7.3560    2.6040 Du      1  MOL1        0.0130
     39 MG          0.0220    7.3110    7.8050 Du      1  MOL1       -0.0575
     40 MG          6.3710    1.8390    2.6040 Du      1  MOL1       -0.0100
     41 MG          6.3370    1.8560    7.7840 Du      1  MOL1       -0.0035
     42 MG          4.7780    4.5980    2.6040 Du      1  MOL1        0.0733
     43 MG          4.7810    4.5950    7.7180 Du      1  MOL1        0.4256
     44 MG          3.1850    7.3560    2.6040 Du      1  MOL1        0.0548
     45 MG          3.2070    7.3670    7.8130 Du      1  MOL1       -0.0635
     46  O          4.7870    8.1270   12.9910 O.3     1  MOL1        1.3468
     47  O         -1.8900    7.7630   13.5180 O.3     1  MOL1        1.2312
     48  O          7.4230    1.7690   13.5870 O.3     1  MOL1        1.2229
     49  O          4.6970    2.1620   13.1600 O.3     1  MOL1        1.3281
     50  O          4.7070    4.6670   11.3210 O.3     1  MOL1        1.5453
     51  O          0.0200    5.7480   12.9910 O.3     1  MOL1        1.3446
     52  H          8.9340    0.4410   13.4670 H       1  MOL1       -0.6211
     53  H         -3.8950    8.1630   13.4470 H       1  MOL1       -0.6190
     54  H          3.4010    0.3240   13.4250 H       1  MOL1       -0.5891
     55  H         -2.1230    7.5390   12.5650 H       1  MOL1       -0.4680
     56  H          7.8580    2.6420   13.7000 H       1  MOL1       -0.5738
     57  H          7.4020    1.6620   12.5800 H       1  MOL1       -0.4512
     58  H          4.2660    2.8000   13.7640 H       1  MOL1       -0.5659
     59  H          5.6270    2.0220   13.5010 H       1  MOL1       -0.6496
     60  H          4.7280    4.9330   12.2670 H       1  MOL1       -0.5192
     61  H          1.6410    4.5190   11.0480 H       1  MOL1        0.9629
     62  H         -0.6050    6.4380   13.3440 H       1  MOL1       -0.6343
     63  H          0.9200    6.0470   13.2350 H       1  MOL1       -0.5931
@<TRIPOS>BOND
     1    50    60    1
     2    55    47    1
     3    57    48    1
     4    51    63    1
     5    51    62    1
     6    49    59    1
     7    49    58    1
     8    48    56    1
