@<TRIPOS>MOLECULE
bader.pqr
 63 9 0 0 0
SMALL
GASTEIGER

@<TRIPOS>ATOM
      1 MG          0.0000    0.0000    0.0000 Du      1  MOL1       -0.1179
      2 MG          9.5430    0.0040    5.1640 Du      1  MOL1        0.0345
      3 MG         -0.0110    0.0610   10.7780 Du      1  MOL1       -0.8286
      4 MG         -1.5930    2.7590    0.0000 Du      1  MOL1        0.0121
      5 MG         -1.5960    2.7680    5.1400 Du      1  MOL1        0.1037
      6 MG          7.8380    2.8120   10.1900 Du      1  MOL1        0.0905
      7 MG         -3.1850    5.5170    0.0000 Du      1  MOL1       -0.0665
      8 MG          6.3580    5.5260    5.1540 Du      1  MOL1        0.0804
      9 MG         -3.1340    5.6320   10.2120 Du      1  MOL1        0.1559
     10 MG          3.1850    0.0000    0.0000 Du      1  MOL1       -0.0285
     11 MG          3.1840    0.0030    5.1290 Du      1  MOL1        0.1070
     12 MG          3.1350    0.0870   10.0800 Du      1  MOL1        0.4440
     13 MG          1.5930    2.7590    0.0000 Du      1  MOL1       -0.0277
     14 MG          1.5810    2.7490    5.1240 Du      1  MOL1        0.0708
     15 MG          1.4800    2.7280   10.1730 Du      1  MOL1        0.2341
     16 MG         -0.0000    5.5170    0.0000 Du      1  MOL1       -0.0769
     17 MG         -0.0160    5.5320    5.1510 Du      1  MOL1       -0.0568
     18 MG         -0.1460    5.6340   10.7540 Du      1  MOL1       -0.6993
     19 MG          6.3710    0.0000    0.0000 Du      1  MOL1        0.0199
     20 MG          1.5900    8.2690    5.1490 Du      1  MOL1        0.0699
     21 MG          6.3650    0.0900   10.2370 Du      1  MOL1        0.2040
     22 MG          4.7780    2.7590    0.0000 Du      1  MOL1       -0.0821
     23 MG          4.7680    2.7790    5.1810 Du      1  MOL1       -0.1242
     24 MG          4.7400    2.7990   10.8230 Du      1  MOL1       -0.7939
     25 MG          3.1850    5.5170    0.0000 Du      1  MOL1       -0.0613
     26 MG          3.2050    5.5280    5.1640 Du      1  MOL1       -0.0031
     27 MG          3.1000    5.5770   10.4890 Du      1  MOL1       -0.8227
     28 MG          0.0000    1.8390    2.6040 Du      1  MOL1       -0.0261
     29 MG         -0.0440    1.8250    7.7150 Du      1  MOL1       -0.2393
     30 MG         -1.5930    4.5980    2.6040 Du      1  MOL1        0.0244
     31 MG         -1.5590    4.6270    7.7110 Du      1  MOL1       -0.0994
     32 MG         -3.1850    7.3560    2.6040 Du      1  MOL1       -0.0022
     33 MG         -3.2170    7.3840    7.6610 Du      1  MOL1        0.0062
     34 MG          3.1850    1.8390    2.6040 Du      1  MOL1        0.0110
     35 MG          3.1770    1.9040    7.6930 Du      1  MOL1       -0.0697
     36 MG          1.5930    4.5980    2.6040 Du      1  MOL1        0.0366
     37 MG          1.6010    4.6160    7.6320 Du      1  MOL1        0.2584
     38 MG          0.0000    7.3560    2.6040 Du      1  MOL1        0.0009
     39 MG          0.0090    7.3280    7.7300 Du      1  MOL1       -0.0948
     40 MG          6.3710    1.8390    2.6040 Du      1  MOL1       -0.0543
     41 MG          6.3340    1.8420    7.6750 Du      1  MOL1        0.1751
     42 MG          4.7780    4.5980    2.6040 Du      1  MOL1       -0.0124
     43 MG          4.7550    4.5780    7.8490 Du      1  MOL1       -0.0611
     44 MG          3.1850    7.3560    2.6040 Du      1  MOL1        0.0394
     45 MG          3.2070    7.3350    7.8200 Du      1  MOL1       -0.1429
     46  O          0.0210    0.0020   12.9230 O.3     1  MOL1        1.3219
     47  O         -1.7550    8.0280   13.4550 O.3     1  MOL1        1.2460
     48  O          7.4340    1.8000   13.5740 O.3     1  MOL1        1.1904
     49  O          4.4270    2.3760   12.9450 O.3     1  MOL1        1.3282
     50  O          3.8130    4.7190   12.1460 O.3     1  MOL1        1.4471
     51  O          0.0460    5.8620   12.8660 O.3     1  MOL1        1.3241
     52  H          8.9240    0.5930   13.3780 H       1  MOL1       -0.6287
     53  H          0.8860    0.0600   13.3900 H       1  MOL1       -0.6004
     54  H          3.4350    0.6460   13.3580 H       1  MOL1       -0.6203
     55  H         -2.0110    7.7890   12.5230 H       1  MOL1       -0.4914
     56  H          7.8480    2.6860   13.6310 H       1  MOL1       -0.5731
     57  H          7.2570    1.6970   12.5940 H       1  MOL1       -0.4654
     58  H          4.0820    3.3440   12.9510 H       1  MOL1       -0.6212
     59  H          5.2700    2.3430   13.4480 H       1  MOL1       -0.6068
     60  H          4.3810    5.3570   12.6250 H       1  MOL1       -0.5439
     61  H          1.4430    4.5690   10.7410 H       1  MOL1        0.9435
     62  H         -0.4350    6.6360   13.2640 H       1  MOL1       -0.6312
     63  H          0.9580    5.8610   13.2170 H       1  MOL1       -0.6058
@<TRIPOS>BOND
     1    50    60    1
     2    55    47    1
     3    57    48    1
     4    51    63    1
     5    51    62    1
     6    46    53    1
     7    49    58    1
     8    49    59    1
     9    48    56    1
