@<TRIPOS>MOLECULE
bader.pqr
 63 9 0 0 0
SMALL
GASTEIGER

@<TRIPOS>ATOM
      1 MG          0.0000    0.0000    0.0000 Du      1  MOL1       -0.1234
      2 MG          4.7760    8.2720    5.1530 Du      1  MOL1        0.0172
      3 MG          0.0170    0.0390   10.7700 Du      1  MOL1       -0.7866
      4 MG         -1.5930    2.7590    0.0000 Du      1  MOL1       -0.0063
      5 MG         -1.5840    2.7530    5.1380 Du      1  MOL1        0.1414
      6 MG          7.9110    2.7430   10.1050 Du      1  MOL1        0.3178
      7 MG         -3.1850    5.5170    0.0000 Du      1  MOL1       -0.0549
      8 MG          6.3690    5.5050    5.1360 Du      1  MOL1        0.0913
      9 MG         -3.1350    5.5510   10.2230 Du      1  MOL1        0.1211
     10 MG          3.1850    0.0000    0.0000 Du      1  MOL1       -0.0110
     11 MG         -1.5870    8.2750    5.1210 Du      1  MOL1        0.1353
     12 MG         -1.6320    8.2520   10.0620 Du      1  MOL1        0.7030
     13 MG          1.5930    2.7590    0.0000 Du      1  MOL1       -0.0028
     14 MG          1.5940    2.7540    5.1480 Du      1  MOL1        0.0900
     15 MG          1.5150    2.7810   10.2900 Du      1  MOL1       -0.2043
     16 MG         -0.0000    5.5170    0.0000 Du      1  MOL1       -0.0952
     17 MG         -0.0000    5.5160    5.1630 Du      1  MOL1       -0.1284
     18 MG         -0.0370    5.4640   10.8710 Du      1  MOL1       -0.9393
     19 MG          6.3710    0.0000    0.0000 Du      1  MOL1        0.0099
     20 MG          1.6020    8.2630    5.1320 Du      1  MOL1        0.0669
     21 MG          1.6000    8.2440   10.2080 Du      1  MOL1        0.4782
     22 MG          4.7780    2.7590    0.0000 Du      1  MOL1       -0.0796
     23 MG          4.7770    2.7600    5.1750 Du      1  MOL1       -0.1100
     24 MG          4.8210    2.6070   10.5670 Du      1  MOL1       -0.6184
     25 MG          3.1850    5.5170    0.0000 Du      1  MOL1       -0.0683
     26 MG          3.2030    5.5150    5.1810 Du      1  MOL1       -0.0314
     27 MG          3.2290    5.5220   10.5230 Du      1  MOL1       -0.8910
     28 MG          0.0000    1.8390    2.6040 Du      1  MOL1       -0.0286
     29 MG          0.0240    1.8090    7.7200 Du      1  MOL1       -0.2442
     30 MG         -1.5930    4.5980    2.6040 Du      1  MOL1        0.0096
     31 MG         -1.5490    4.6160    7.7000 Du      1  MOL1       -0.1440
     32 MG         -3.1850    7.3560    2.6040 Du      1  MOL1       -0.0211
     33 MG         -3.1960    7.3350    7.6330 Du      1  MOL1        0.0582
     34 MG          3.1850    1.8390    2.6040 Du      1  MOL1        0.0065
     35 MG          3.1890    1.8750    7.7170 Du      1  MOL1        0.0392
     36 MG          1.5930    4.5980    2.6040 Du      1  MOL1        0.0004
     37 MG          1.6040    4.6210    7.7250 Du      1  MOL1        0.1164
     38 MG          0.0000    7.3560    2.6040 Du      1  MOL1        0.0381
     39 MG          0.0170    7.3210    7.6820 Du      1  MOL1        0.2076
     40 MG          6.3710    1.8390    2.6040 Du      1  MOL1       -0.0519
     41 MG          6.3540    1.8100    7.6530 Du      1  MOL1       -0.0551
     42 MG          4.7780    4.5980    2.6040 Du      1  MOL1       -0.0197
     43 MG          4.7780    4.5530    7.8210 Du      1  MOL1       -0.1994
     44 MG          3.1850    7.3560    2.6040 Du      1  MOL1        0.0498
     45 MG          3.2340    7.3370    7.7850 Du      1  MOL1       -0.0647
     46  O          9.4510    0.1110   12.9060 O.3     1  MOL1        1.3514
     47  O         -1.9750    8.0380   13.4360 O.3     1  MOL1        1.2109
     48  O          7.3880    2.0560   13.4230 O.3     1  MOL1        1.2164
     49  O          4.5070    2.7160   12.6540 O.3     1  MOL1        1.3709
     50  O          3.3850    4.9890   12.4220 O.3     1  MOL1        1.3620
     51  O         -0.4300    5.7310   12.9620 O.3     1  MOL1        1.3293
     52  H          8.8400    0.7750   13.3130 H       1  MOL1       -0.6378
     53  H          0.7310    0.0850   13.4240 H       1  MOL1       -0.6290
     54  H          3.3040    0.6090   13.4340 H       1  MOL1       -0.5976
     55  H         -2.2190    7.9240   12.4710 H       1  MOL1       -0.4670
     56  H          7.8040    2.9400   13.3260 H       1  MOL1       -0.5797
     57  H          7.1970    1.7990   12.4750 H       1  MOL1       -0.4793
     58  H          4.0470    3.6480   12.7890 H       1  MOL1       -0.6488
     59  H          5.3350    2.6830   13.1830 H       1  MOL1       -0.6097
     60  H          2.9860    5.6140   13.0510 H       1  MOL1       -0.5475
     61  H          1.5850    4.4230   11.3690 H       1  MOL1        0.8791
     62  H         -0.9120    6.5470   13.2740 H       1  MOL1       -0.6404
     63  H          0.2690    5.5300   13.6120 H       1  MOL1       -0.6012
@<TRIPOS>BOND
     1    50    60    1
     2    55    47    1
     3    57    48    1
     4    49    58    1
     5    49    59    1
     6    46    52    1
     7    51    62    1
     8    51    63    1
     9    56    48    1
