@<TRIPOS>MOLECULE
bader.pqr
 63 8 0 0 0
SMALL
GASTEIGER

@<TRIPOS>ATOM
      1 MG          0.0000    0.0000    0.0000 Du      1  MOL1       -0.0850
      2 MG          9.5510    0.0060    5.1590 Du      1  MOL1       -0.0787
      3 MG          4.7450    8.2610   10.7630 Du      1  MOL1       -0.6501
      4 MG         -1.5930    2.7590    0.0000 Du      1  MOL1        0.0091
      5 MG         -1.5920    2.7650    5.1360 Du      1  MOL1        0.1495
      6 MG          7.9410    2.7710   10.1510 Du      1  MOL1        0.3447
      7 MG         -3.1850    5.5170    0.0000 Du      1  MOL1       -0.0152
      8 MG          6.3670    5.5180    5.1330 Du      1  MOL1        0.1107
      9 MG          6.3590    5.5360   10.2450 Du      1  MOL1        0.1135
     10 MG          3.1850    0.0000    0.0000 Du      1  MOL1        0.0015
     11 MG          3.1850    0.0070    5.1350 Du      1  MOL1        0.1528
     12 MG          3.1570    0.0100   10.1260 Du      1  MOL1        0.4336
     13 MG          1.5930    2.7590    0.0000 Du      1  MOL1       -0.0249
     14 MG          1.5890    2.7590    5.1340 Du      1  MOL1        0.1022
     15 MG          1.5710    2.7830   10.2490 Du      1  MOL1        0.1081
     16 MG         -0.0000    5.5170    0.0000 Du      1  MOL1       -0.1054
     17 MG         -0.0050    5.5230    5.1590 Du      1  MOL1       -0.0915
     18 MG         -0.0280    5.5210   10.7770 Du      1  MOL1       -0.6729
     19 MG          6.3710    0.0000    0.0000 Du      1  MOL1       -0.0220
     20 MG          6.3660    0.0020    5.1330 Du      1  MOL1        0.1142
     21 MG          6.3570    0.0260   10.2300 Du      1  MOL1        0.1320
     22 MG          4.7780    2.7590    0.0000 Du      1  MOL1       -0.0724
     23 MG          4.7730    2.7630    5.1590 Du      1  MOL1       -0.0663
     24 MG          4.7390    2.7510   10.7650 Du      1  MOL1       -0.6421
     25 MG          3.1850    5.5170    0.0000 Du      1  MOL1       -0.0039
     26 MG          3.1850    5.5240    5.1340 Du      1  MOL1        0.1417
     27 MG          3.1610    5.5220   10.1220 Du      1  MOL1        0.4687
     28 MG          0.0000    1.8390    2.6040 Du      1  MOL1       -0.0053
     29 MG          0.0060    1.8180    7.7050 Du      1  MOL1       -0.1801
     30 MG         -1.5930    4.5980    2.6040 Du      1  MOL1       -0.0064
     31 MG         -1.5810    4.6290    7.7020 Du      1  MOL1        0.2540
     32 MG         -3.1850    7.3560    2.6040 Du      1  MOL1       -0.0297
     33 MG         -3.2140    7.3580    7.6710 Du      1  MOL1       -0.1597
     34 MG          3.1850    1.8390    2.6040 Du      1  MOL1       -0.0199
     35 MG          3.1940    1.8750    7.7010 Du      1  MOL1       -0.2315
     36 MG          1.5930    4.5980    2.6040 Du      1  MOL1       -0.0344
     37 MG          1.5640    4.6000    7.6700 Du      1  MOL1       -0.1617
     38 MG          0.0000    7.3560    2.6040 Du      1  MOL1       -0.0241
     39 MG          0.0070    7.3360    7.6980 Du      1  MOL1       -0.2323
     40 MG          6.3710    1.8390    2.6040 Du      1  MOL1       -0.0241
     41 MG          6.3450    1.8470    7.6740 Du      1  MOL1       -0.1312
     42 MG          4.7780    4.5980    2.6040 Du      1  MOL1       -0.0135
     43 MG          4.7870    4.5780    7.6950 Du      1  MOL1        0.2252
     44 MG          3.1850    7.3560    2.6040 Du      1  MOL1       -0.0245
     45 MG          3.1950    7.3880    7.6940 Du      1  MOL1        0.1945
     46  O          4.6800    8.1510   12.9300 O.3     1  MOL1        1.3379
     47  O         -2.0240    7.6490   13.5050 O.3     1  MOL1        1.1995
     48  O          7.4760    1.9640   13.5070 O.3     1  MOL1        1.2366
     49  O          4.6670    2.6750   12.9310 O.3     1  MOL1        1.3465
     50  O          2.8030    4.8890   13.5030 O.3     1  MOL1        1.1989
     51  O         -0.0360    5.5330   12.9310 O.3     1  MOL1        1.3332
     52  H          8.9090    0.5650   13.3770 H       1  MOL1       -0.6205
     53  H         -4.0020    8.0920   13.3870 H       1  MOL1       -0.6210
     54  H          3.2220    0.2360   13.4800 H       1  MOL1       -0.5791
     55  H         -2.1510    7.4330   12.5360 H       1  MOL1       -0.4676
     56  H         -1.5840    2.8110   13.5020 H       1  MOL1       -0.5777
     57  H          7.3460    1.7740   12.5310 H       1  MOL1       -0.5005
     58  H          4.1730    3.4060   13.3760 H       1  MOL1       -0.6201
     59  H          5.5320    2.5450   13.3900 H       1  MOL1       -0.6303
     60  H          3.3130    5.7270   13.4640 H       1  MOL1       -0.5812
     61  H          2.6530    4.6720   12.5370 H       1  MOL1       -0.4639
     62  H         -0.5660    6.2360   13.3780 H       1  MOL1       -0.6137
     63  H          0.8330    5.4430   13.3890 H       1  MOL1       -0.6241
@<TRIPOS>BOND
     1    57    48    1
     2    55    47    1
     3    61    50    1
     4    51    62    1
     5    51    63    1
     6    49    58    1
     7    49    59    1
     8    60    50    1
