@<TRIPOS>MOLECULE
bader.pqr
 63 9 0 0 0
SMALL
GASTEIGER

@<TRIPOS>ATOM
      1 MG          0.0000    0.0000    0.0000 Du      1  MOL1       -0.0827
      2 MG          4.7660    8.2700    5.1490 Du      1  MOL1       -0.0697
      3 MG          4.7430    8.2580   10.7070 Du      1  MOL1       -0.6320
      4 MG         -1.5930    2.7590    0.0000 Du      1  MOL1       -0.0112
      5 MG          7.9610    2.7520    5.1330 Du      1  MOL1        0.1707
      6 MG          7.9400    2.7480   10.1050 Du      1  MOL1        0.3984
      7 MG         -3.1850    5.5170    0.0000 Du      1  MOL1       -0.0481
      8 MG          6.3650    5.4990    5.1260 Du      1  MOL1        0.0877
      9 MG          6.3420    5.5320   10.1920 Du      1  MOL1        0.0807
     10 MG          3.1850    0.0000    0.0000 Du      1  MOL1        0.0617
     11 MG         -1.5910    8.2710    5.1230 Du      1  MOL1        0.1991
     12 MG         -1.6480    8.2590   10.0490 Du      1  MOL1        0.6628
     13 MG          1.5930    2.7590    0.0000 Du      1  MOL1        0.0086
     14 MG          1.5870    2.7520    5.1320 Du      1  MOL1        0.1460
     15 MG          1.5300    2.7650   10.2520 Du      1  MOL1        0.1219
     16 MG         -0.0000    5.5170    0.0000 Du      1  MOL1       -0.0831
     17 MG         -0.0060    5.5090    5.1530 Du      1  MOL1       -0.1110
     18 MG         -0.0740    5.5050   10.7830 Du      1  MOL1       -0.5758
     19 MG          6.3710    0.0000    0.0000 Du      1  MOL1       -0.0250
     20 MG          1.5910    8.2630    5.1290 Du      1  MOL1        0.1067
     21 MG          1.5730    8.2360   10.2110 Du      1  MOL1        0.1209
     22 MG          4.7780    2.7590    0.0000 Du      1  MOL1       -0.0836
     23 MG          4.7710    2.7530    5.1560 Du      1  MOL1       -0.0414
     24 MG          4.7590    2.6730   10.5710 Du      1  MOL1       -0.6596
     25 MG          3.1850    5.5170    0.0000 Du      1  MOL1       -0.0648
     26 MG          3.1850    5.5100    5.1480 Du      1  MOL1        0.0316
     27 MG          3.1500    5.4920   10.1680 Du      1  MOL1        0.1182
     28 MG          0.0000    1.8390    2.6040 Du      1  MOL1       -0.0136
     29 MG          0.0090    1.7970    7.6890 Du      1  MOL1       -0.2286
     30 MG         -1.5930    4.5980    2.6040 Du      1  MOL1       -0.0144
     31 MG         -1.5810    4.6150    7.6870 Du      1  MOL1       -0.2610
     32 MG         -3.1850    7.3560    2.6040 Du      1  MOL1       -0.0676
     33 MG         -3.2160    7.3350    7.6180 Du      1  MOL1        0.3316
     34 MG          3.1850    1.8390    2.6040 Du      1  MOL1       -0.0403
     35 MG          3.1820    1.8630    7.6790 Du      1  MOL1       -0.2459
     36 MG          1.5930    4.5980    2.6040 Du      1  MOL1       -0.0413
     37 MG          1.5590    4.5930    7.6820 Du      1  MOL1       -0.1500
     38 MG          0.0000    7.3560    2.6040 Du      1  MOL1        0.0327
     39 MG          0.0070    7.3160    7.6720 Du      1  MOL1        0.2880
     40 MG          6.3710    1.8390    2.6040 Du      1  MOL1       -0.0549
     41 MG          6.3370    1.8190    7.6580 Du      1  MOL1       -0.2230
     42 MG          4.7780    4.5980    2.6040 Du      1  MOL1        0.0043
     43 MG          4.7750    4.5510    7.7100 Du      1  MOL1        0.2438
     44 MG          3.1850    7.3560    2.6040 Du      1  MOL1        0.0022
     45 MG          3.2030    7.3570    7.7080 Du      1  MOL1       -0.2007
     46  O          4.5630    8.1620   12.9160 O.3     1  MOL1        1.3420
     47  O         -2.1010    7.9780   13.4300 O.3     1  MOL1        1.2342
     48  O          7.3850    1.9920   13.3880 O.3     1  MOL1        1.2289
     49  O          4.6320    2.7490   12.7180 O.3     1  MOL1        1.3696
     50  O          3.2440    5.1420   13.1140 O.3     1  MOL1        1.3010
     51  O         -0.4930    5.6860   12.9340 O.3     1  MOL1        1.3337
     52  H          8.7700    0.6010   13.2980 H       1  MOL1       -0.6170
     53  H         -4.1250    8.1840   13.3870 H       1  MOL1       -0.6317
     54  H          3.1850    0.5380   13.5240 H       1  MOL1       -0.6006
     55  H         -2.2690    7.9330   12.4420 H       1  MOL1       -0.4721
     56  H          7.8610    2.8490   13.3330 H       1  MOL1       -0.5786
     57  H          7.2520    1.7530   12.4200 H       1  MOL1       -0.4710
     58  H          4.2630    3.6260   13.0060 H       1  MOL1       -0.6514
     59  H          5.4880    2.5980   13.1870 H       1  MOL1       -0.6233
     60  H          3.4820    6.0920   13.0400 H       1  MOL1       -0.6285
     61  H          2.4270    5.0190   12.5670 H       1  MOL1       -0.5032
     62  H         -1.0090    6.4850   13.2320 H       1  MOL1       -0.6330
     63  H          0.2070    5.5380   13.5980 H       1  MOL1       -0.5871
@<TRIPOS>BOND
     1    57    48    1
     2    55    47    1
     3    61    50    1
     4    49    58    1
     5    49    59    1
     6    51    62    1
     7    51    63    1
     8    60    50    1
     9    56    48    1
