@<TRIPOS>MOLECULE
bader.pqr
 63 9 0 0 0
SMALL
GASTEIGER

@<TRIPOS>ATOM
      1 MG          0.0000    0.0000    0.0000 Du      1  MOL1       -0.0831
      2 MG          9.5420    0.0000    5.1460 Du      1  MOL1       -0.0756
      3 MG          4.7250    8.2540   10.7230 Du      1  MOL1       -0.6340
      4 MG         -1.5930    2.7590    0.0000 Du      1  MOL1       -0.0176
      5 MG          7.9580    2.7580    5.1310 Du      1  MOL1        0.1327
      6 MG          7.9300    2.7640   10.1180 Du      1  MOL1        0.3716
      7 MG         -3.1850    5.5170    0.0000 Du      1  MOL1       -0.0353
      8 MG          6.3620    5.5060    5.1240 Du      1  MOL1        0.1100
      9 MG          6.3270    5.5420   10.1980 Du      1  MOL1        0.0993
     10 MG          3.1850    0.0000    0.0000 Du      1  MOL1        0.0462
     11 MG         -1.5950    8.2750    5.1240 Du      1  MOL1        0.1942
     12 MG          3.1260    0.0040   10.0600 Du      1  MOL1        0.5950
     13 MG          1.5930    2.7590    0.0000 Du      1  MOL1        0.0003
     14 MG          1.5840    2.7520    5.1260 Du      1  MOL1        0.1370
     15 MG          1.5280    2.7840   10.2500 Du      1  MOL1        0.1009
     16 MG         -0.0000    5.5170    0.0000 Du      1  MOL1       -0.0873
     17 MG         -0.0130    5.5160    5.1470 Du      1  MOL1       -0.1049
     18 MG         -0.0710    5.5210   10.7870 Du      1  MOL1       -0.6173
     19 MG          6.3710    0.0000    0.0000 Du      1  MOL1       -0.0211
     20 MG          1.5840    8.2700    5.1260 Du      1  MOL1        0.1191
     21 MG          1.5570    8.2740   10.2090 Du      1  MOL1        0.1383
     22 MG          4.7780    2.7590    0.0000 Du      1  MOL1       -0.0902
     23 MG          4.7670    2.7570    5.1520 Du      1  MOL1       -0.0709
     24 MG          4.7310    2.7280   10.6350 Du      1  MOL1       -0.6806
     25 MG          3.1850    5.5170    0.0000 Du      1  MOL1       -0.0327
     26 MG          3.1810    5.5160    5.1310 Du      1  MOL1        0.1002
     27 MG          3.1140    5.5180   10.0970 Du      1  MOL1        0.4095
     28 MG          0.0000    1.8390    2.6040 Du      1  MOL1       -0.0128
     29 MG          0.0010    1.8050    7.6930 Du      1  MOL1       -0.2186
     30 MG         -1.5930    4.5980    2.6040 Du      1  MOL1       -0.0262
     31 MG         -1.5890    4.6220    7.6880 Du      1  MOL1       -0.2624
     32 MG         -3.1850    7.3560    2.6040 Du      1  MOL1       -0.0528
     33 MG         -3.2240    7.3450    7.6260 Du      1  MOL1       -0.1505
     34 MG          3.1850    1.8390    2.6040 Du      1  MOL1       -0.0477
     35 MG          3.1800    1.8740    7.6830 Du      1  MOL1       -0.2957
     36 MG          1.5930    4.5980    2.6040 Du      1  MOL1       -0.0307
     37 MG          1.5470    4.5900    7.6470 Du      1  MOL1       -0.1657
     38 MG          0.0000    7.3560    2.6040 Du      1  MOL1        0.0220
     39 MG          0.0020    7.3220    7.6780 Du      1  MOL1        0.2730
     40 MG          6.3710    1.8390    2.6040 Du      1  MOL1       -0.0380
     41 MG          6.3310    1.8360    7.6580 Du      1  MOL1       -0.1954
     42 MG          4.7780    4.5980    2.6040 Du      1  MOL1       -0.0177
     43 MG          4.7730    4.5650    7.6870 Du      1  MOL1        0.2725
     44 MG          3.1850    7.3560    2.6040 Du      1  MOL1       -0.0118
     45 MG          3.1880    7.3780    7.6830 Du      1  MOL1        0.1817
     46  O          4.5670    8.1390   12.9180 O.3     1  MOL1        1.3430
     47  O         -2.1130    7.9250   13.4470 O.3     1  MOL1        1.1899
     48  O          7.3900    1.9710   13.4190 O.3     1  MOL1        1.2171
     49  O          4.6240    2.8060   12.7730 O.3     1  MOL1        1.3587
     50  O          3.1380    5.1080   13.3860 O.3     1  MOL1        1.2105
     51  O         -0.3910    5.6840   12.9380 O.3     1  MOL1        1.3455
     52  H          8.7650    0.5630   13.3130 H       1  MOL1       -0.6231
     53  H         -4.1200    8.1610   13.3860 H       1  MOL1       -0.6260
     54  H          3.1570    0.4920   13.5620 H       1  MOL1       -0.5903
     55  H         -2.2550    7.8840   12.4540 H       1  MOL1       -0.4404
     56  H          7.8870    2.8160   13.3780 H       1  MOL1       -0.5807
     57  H          7.2430    1.7530   12.4500 H       1  MOL1       -0.4646
     58  H          4.2170    3.6480   13.1220 H       1  MOL1       -0.6360
     59  H          5.4740    2.6430   13.2450 H       1  MOL1       -0.6224
     60  H          3.5580    5.9830   13.2250 H       1  MOL1       -0.5777
     61  H          2.5800    4.9630   12.5770 H       1  MOL1       -0.4862
     62  H         -0.9450    6.4480   13.2520 H       1  MOL1       -0.6381
     63  H          0.3800    5.6230   13.5370 H       1  MOL1       -0.6063
@<TRIPOS>BOND
     1    57    48    1
     2    55    47    1
     3    61    50    1
     4    49    58    1
     5    49    59    1
     6    51    62    1
     7    51    63    1
     8    60    50    1
     9    56    48    1
