@<TRIPOS>MOLECULE
bader.pqr
 63 8 0 0 0
SMALL
GASTEIGER

@<TRIPOS>ATOM
      1 MG          0.0000    0.0000    0.0000 Du      1  MOL1       -0.1065
      2 MG          9.5450    0.0160    5.1620 Du      1  MOL1        0.0509
      3 MG         -0.0440    0.1150   10.7490 Du      1  MOL1       -0.7849
      4 MG         -1.5930    2.7590    0.0000 Du      1  MOL1        0.0283
      5 MG         -1.6040    2.7830    5.1560 Du      1  MOL1        0.0262
      6 MG          7.9040    2.7930   10.1910 Du      1  MOL1        0.1491
      7 MG         -3.1850    5.5170    0.0000 Du      1  MOL1       -0.0461
      8 MG         -3.1900    5.5460    5.1360 Du      1  MOL1        0.1206
      9 MG         -3.2150    5.5730   10.2650 Du      1  MOL1       -0.4297
     10 MG          3.1850    0.0000    0.0000 Du      1  MOL1       -0.0389
     11 MG          3.1770    0.0140    5.1400 Du      1  MOL1        0.0820
     12 MG          3.1070    0.0600   10.1120 Du      1  MOL1        0.4492
     13 MG          1.5930    2.7590    0.0000 Du      1  MOL1       -0.0264
     14 MG          1.5800    2.7590    5.1270 Du      1  MOL1        0.0552
     15 MG          1.5020    2.7600   10.2180 Du      1  MOL1        0.2108
     16 MG         -0.0000    5.5170    0.0000 Du      1  MOL1       -0.0999
     17 MG         -0.0250    5.5500    5.1550 Du      1  MOL1       -0.0067
     18 MG         -0.1380    5.5770   10.7790 Du      1  MOL1       -0.7561
     19 MG          6.3710    0.0000    0.0000 Du      1  MOL1       -0.0377
     20 MG          6.3520    0.0110    5.1530 Du      1  MOL1        0.0506
     21 MG          6.3510    0.0710   10.2560 Du      1  MOL1        0.0327
     22 MG          4.7780    2.7590    0.0000 Du      1  MOL1       -0.0953
     23 MG          4.7660    2.7730    5.1660 Du      1  MOL1       -0.1517
     24 MG          4.7080    2.6810   10.8560 Du      1  MOL1       -0.8179
     25 MG          3.1850    5.5170    0.0000 Du      1  MOL1       -0.0280
     26 MG          3.1840    5.5460    5.1220 Du      1  MOL1        0.0492
     27 MG          3.0780    5.6100   10.2320 Du      1  MOL1       -0.2292
     28 MG          0.0000    1.8390    2.6040 Du      1  MOL1       -0.0872
     29 MG         -0.0260    1.8550    7.7120 Du      1  MOL1       -0.2419
     30 MG         -1.5930    4.5980    2.6040 Du      1  MOL1        0.0301
     31 MG         -1.5930    4.6520    7.7510 Du      1  MOL1       -0.2036
     32 MG         -3.1850    7.3560    2.6040 Du      1  MOL1        0.0033
     33 MG         -3.2450    7.3830    7.7120 Du      1  MOL1       -0.2491
     34 MG          3.1850    1.8390    2.6040 Du      1  MOL1       -0.0323
     35 MG          3.1820    1.9310    7.7280 Du      1  MOL1       -0.3650
     36 MG          1.5930    4.5980    2.6040 Du      1  MOL1        0.0732
     37 MG          1.5840    4.6280    7.6210 Du      1  MOL1        0.2451
     38 MG          0.0000    7.3560    2.6040 Du      1  MOL1       -0.0289
     39 MG         -0.0000    7.3440    7.7490 Du      1  MOL1       -0.0548
     40 MG          6.3710    1.8390    2.6040 Du      1  MOL1        0.0030
     41 MG          6.3210    1.8890    7.7160 Du      1  MOL1        0.0257
     42 MG          4.7780    4.5980    2.6040 Du      1  MOL1        0.0276
     43 MG          4.7590    4.6270    7.6670 Du      1  MOL1        0.4999
     44 MG          3.1850    7.3560    2.6040 Du      1  MOL1        0.0725
     45 MG          3.1900    7.3940    7.7610 Du      1  MOL1       -0.0664
     46  O          4.7560    8.2070   12.9190 O.3     1  MOL1        1.3484
     47  O         -1.8990    7.9020   13.4530 O.3     1  MOL1        1.2493
     48  O          7.3190    1.8050   13.5310 O.3     1  MOL1        1.2104
     49  O          4.6010    2.2320   13.0700 O.3     1  MOL1        1.3068
     50  O          4.6600    4.7400   11.2670 O.3     1  MOL1        1.5887
     51  O         -0.0210    5.8520   12.9150 O.3     1  MOL1        1.3296
     52  H          8.8850    0.5000   13.3950 H       1  MOL1       -0.6173
     53  H         -3.9300    8.2660   13.3790 H       1  MOL1       -0.6230
     54  H          3.3890    0.4670   13.3700 H       1  MOL1       -0.6073
     55  H         -2.1360    7.6910   12.5010 H       1  MOL1       -0.4731
     56  H          7.7570    2.6770   13.6380 H       1  MOL1       -0.5733
     57  H          7.3030    1.6880   12.5260 H       1  MOL1       -0.4395
     58  H          4.1740    2.9080   13.6340 H       1  MOL1       -0.5738
     59  H          5.5240    2.0910   13.4310 H       1  MOL1       -0.6212
     60  H          4.6810    5.0150   12.2100 H       1  MOL1       -0.5594
     61  H          1.5870    4.5800   10.9740 H       1  MOL1        0.9648
     62  H         -0.6280    6.5600   13.2660 H       1  MOL1       -0.6275
     63  H          0.8860    6.1240   13.1650 H       1  MOL1       -0.5836
@<TRIPOS>BOND
     1    50    60    1
     2    55    47    1
     3    57    48    1
     4    51    63    1
     5    51    62    1
     6    49    59    1
     7    49    58    1
     8    48    56    1
