@<TRIPOS>MOLECULE
bader.pqr
 63 7 0 0 0
SMALL
GASTEIGER

@<TRIPOS>ATOM
      1 MG          0.0000    0.0000    0.0000 Du      1  MOL1       -0.1232
      2 MG          4.7570    8.2680    5.1730 Du      1  MOL1        0.0385
      3 MG          9.5150    0.0330   10.7530 Du      1  MOL1       -0.8811
      4 MG         -1.5930    2.7590    0.0000 Du      1  MOL1        0.0370
      5 MG          7.9460    2.7680    5.1330 Du      1  MOL1        0.1837
      6 MG          7.8540    2.7560   10.1620 Du      1  MOL1        0.0186
      7 MG         -3.1850    5.5170    0.0000 Du      1  MOL1       -0.0591
      8 MG          6.3420    5.5200    5.1590 Du      1  MOL1        0.1105
      9 MG         -3.1960    5.5640   10.2770 Du      1  MOL1        0.0405
     10 MG          3.1850    0.0000    0.0000 Du      1  MOL1       -0.0680
     11 MG         -1.6150    8.2710    5.1450 Du      1  MOL1        0.0279
     12 MG         -1.6470    8.2490   10.1660 Du      1  MOL1        0.2482
     13 MG          1.5930    2.7590    0.0000 Du      1  MOL1       -0.0225
     14 MG          1.5780    2.7500    5.1240 Du      1  MOL1        0.0984
     15 MG          1.4900    2.6530   10.1530 Du      1  MOL1        0.3979
     16 MG         -0.0000    5.5170    0.0000 Du      1  MOL1       -0.0814
     17 MG         -0.0230    5.5180    5.1640 Du      1  MOL1       -0.0627
     18 MG         -0.1710    5.5260   10.7920 Du      1  MOL1       -0.6749
     19 MG          6.3710    0.0000    0.0000 Du      1  MOL1        0.0385
     20 MG          1.5810    8.2640    5.1470 Du      1  MOL1        0.0986
     21 MG          6.3030    0.0720   10.2360 Du      1  MOL1        0.4913
     22 MG          4.7780    2.7590    0.0000 Du      1  MOL1       -0.0734
     23 MG          4.7510    2.7750    5.1770 Du      1  MOL1       -0.0565
     24 MG          4.7520    2.6750   10.6720 Du      1  MOL1       -0.7088
     25 MG          3.1850    5.5170    0.0000 Du      1  MOL1       -0.0821
     26 MG          3.1820    5.5190    5.1850 Du      1  MOL1       -0.0093
     27 MG          3.1500    5.5750   10.5340 Du      1  MOL1       -0.7976
     28 MG          0.0000    1.8390    2.6040 Du      1  MOL1        0.0305
     29 MG         -0.0530    1.8270    7.6780 Du      1  MOL1       -0.2094
     30 MG         -1.5930    4.5980    2.6040 Du      1  MOL1        0.0078
     31 MG         -1.6040    4.6240    7.7210 Du      1  MOL1       -0.1670
     32 MG         -3.1850    7.3560    2.6040 Du      1  MOL1       -0.0116
     33 MG         -3.2410    7.3620    7.7010 Du      1  MOL1        0.1647
     34 MG          3.1850    1.8390    2.6040 Du      1  MOL1        0.0137
     35 MG          3.1690    1.8560    7.7070 Du      1  MOL1       -0.1646
     36 MG          1.5930    4.5980    2.6040 Du      1  MOL1        0.0115
     37 MG          1.5680    4.6010    7.6820 Du      1  MOL1        0.0229
     38 MG          0.0000    7.3560    2.6040 Du      1  MOL1        0.0406
     39 MG         -0.0150    7.3210    7.7180 Du      1  MOL1        0.0722
     40 MG          6.3710    1.8390    2.6040 Du      1  MOL1       -0.0844
     41 MG          6.3160    1.8370    7.6570 Du      1  MOL1        0.2308
     42 MG          4.7780    4.5980    2.6040 Du      1  MOL1        0.0088
     43 MG          4.7190    4.5640    7.8650 Du      1  MOL1       -0.2192
     44 MG          3.1850    7.3560    2.6040 Du      1  MOL1        0.0126
     45 MG          3.1740    7.3410    7.8340 Du      1  MOL1       -0.1946
     46  O          4.6630    8.2600   12.8600 O.3     1  MOL1        1.3741
     47  O         -2.2290    8.2230   13.6120 O.3     1  MOL1        1.1956
     48  O          7.5680    1.9440   13.5640 O.3     1  MOL1        1.2133
     49  O          4.2500    3.0120   12.7030 O.3     1  MOL1        1.3693
     50  O          3.0300    5.2900   12.5340 O.3     1  MOL1        1.3327
     51  O          0.4600    5.4320   12.7640 O.3     1  MOL1        1.3589
     52  H          8.8470    0.6670   13.2740 H       1  MOL1       -0.6390
     53  H          0.7850    0.0400   13.2900 H       1  MOL1       -0.6425
     54  H          2.9800    0.8110   13.4400 H       1  MOL1       -0.5696
     55  H         -2.0210    7.6940   12.8020 H       1  MOL1       -0.5218
     56  H         -1.5310    2.8080   13.5010 H       1  MOL1       -0.5823
     57  H          7.1650    1.8310   12.6610 H       1  MOL1       -0.5023
     58  H          3.7660    3.9320   12.7760 H       1  MOL1       -0.6457
     59  H          4.9840    3.0060   13.3480 H       1  MOL1       -0.6001
     60  H          3.5030    5.9950   13.0200 H       1  MOL1       -0.5551
     61  H          1.4740    4.5730   10.3480 H       1  MOL1        0.9666
     62  H          0.1500    6.0980   13.4050 H       1  MOL1       -0.6019
     63  H          1.4990    5.3890   12.8130 H       1  MOL1       -0.6442
@<TRIPOS>BOND
     1    50    60    1
     2    57    48    1
     3    49    58    1
     4    49    59    1
     5    51    63    1
     6    51    62    1
     7    55    47    1
