@<TRIPOS>MOLECULE
bader.pqr
 63 8 0 0 0
SMALL
GASTEIGER

@<TRIPOS>ATOM
      1 MG          0.0000    0.0000    0.0000 Du      1  MOL1       -0.1276
      2 MG          4.7560    8.2630    5.1680 Du      1  MOL1        0.0374
      3 MG          9.5190    0.0300   10.8050 Du      1  MOL1       -0.8754
      4 MG         -1.5930    2.7590    0.0000 Du      1  MOL1        0.0349
      5 MG          7.9460    2.7610    5.1360 Du      1  MOL1        0.1758
      6 MG          7.8470    2.7450   10.1560 Du      1  MOL1        0.0562
      7 MG         -3.1850    5.5170    0.0000 Du      1  MOL1       -0.0512
      8 MG          6.3440    5.5100    5.1540 Du      1  MOL1        0.1463
      9 MG          6.3230    5.5700   10.2750 Du      1  MOL1        0.0641
     10 MG          3.1850    0.0000    0.0000 Du      1  MOL1       -0.0595
     11 MG         -1.6120    8.2640    5.1400 Du      1  MOL1        0.0387
     12 MG         -1.6640    8.2550   10.1280 Du      1  MOL1        0.4043
     13 MG          1.5930    2.7590    0.0000 Du      1  MOL1       -0.0155
     14 MG          1.5760    2.7420    5.1190 Du      1  MOL1        0.1174
     15 MG          1.4840    2.6600   10.1510 Du      1  MOL1        0.3349
     16 MG         -0.0000    5.5170    0.0000 Du      1  MOL1       -0.0777
     17 MG         -0.0270    5.5130    5.1590 Du      1  MOL1       -0.0578
     18 MG         -0.1940    5.5250   10.7640 Du      1  MOL1       -0.6895
     19 MG          6.3710    0.0000    0.0000 Du      1  MOL1        0.0316
     20 MG          1.5840    8.2560    5.1480 Du      1  MOL1        0.0781
     21 MG          6.3070    0.0570   10.2460 Du      1  MOL1        0.4969
     22 MG          4.7780    2.7590    0.0000 Du      1  MOL1       -0.0718
     23 MG          4.7530    2.7690    5.1780 Du      1  MOL1       -0.0726
     24 MG          4.7450    2.6660   10.6590 Du      1  MOL1       -0.7085
     25 MG          3.1850    5.5170    0.0000 Du      1  MOL1       -0.0903
     26 MG          3.1860    5.5150    5.1860 Du      1  MOL1       -0.0500
     27 MG          3.1140    5.5760   10.6770 Du      1  MOL1       -0.8867
     28 MG          0.0000    1.8390    2.6040 Du      1  MOL1        0.0185
     29 MG         -0.0550    1.8120    7.6830 Du      1  MOL1       -0.2286
     30 MG         -1.5930    4.5980    2.6040 Du      1  MOL1        0.0046
     31 MG         -1.6070    4.6150    7.7260 Du      1  MOL1       -0.2278
     32 MG         -3.1850    7.3560    2.6040 Du      1  MOL1       -0.0137
     33 MG         -3.2440    7.3440    7.6800 Du      1  MOL1        0.1061
     34 MG          3.1850    1.8390    2.6040 Du      1  MOL1       -0.0036
     35 MG          3.1610    1.8500    7.6960 Du      1  MOL1       -0.1349
     36 MG          1.5930    4.5980    2.6040 Du      1  MOL1        0.0276
     37 MG          1.5620    4.5900    7.6600 Du      1  MOL1        0.1068
     38 MG          0.0000    7.3560    2.6040 Du      1  MOL1        0.0379
     39 MG         -0.0080    7.3070    7.7180 Du      1  MOL1        0.0535
     40 MG          6.3710    1.8390    2.6040 Du      1  MOL1       -0.0723
     41 MG          6.3140    1.8210    7.6600 Du      1  MOL1        0.1602
     42 MG          4.7780    4.5980    2.6040 Du      1  MOL1        0.0068
     43 MG          4.7050    4.5510    7.8810 Du      1  MOL1       -0.1709
     44 MG          3.1850    7.3560    2.6040 Du      1  MOL1        0.0053
     45 MG          3.1790    7.3190    7.8560 Du      1  MOL1       -0.1618
     46  O          9.4890    0.0400   12.9180 O.3     1  MOL1        1.3717
     47  O         -2.0900    8.0430   13.5570 O.3     1  MOL1        1.1871
     48  O          7.5520    1.9730   13.5500 O.3     1  MOL1        1.2348
     49  O          4.2680    2.9790   12.6910 O.3     1  MOL1        1.3725
     50  O          2.9580    5.2300   12.6580 O.3     1  MOL1        1.3610
     51  O          0.2880    5.5240   12.7930 O.3     1  MOL1        1.3594
     52  H          8.9000    0.7270   13.3310 H       1  MOL1       -0.6460
     53  H          0.8210    0.0520   13.3600 H       1  MOL1       -0.6367
     54  H          3.1510    0.6220   13.4260 H       1  MOL1       -0.5767
     55  H         -2.0640    7.6260   12.6560 H       1  MOL1       -0.4875
     56  H         -1.5870    2.8560   13.4620 H       1  MOL1       -0.5912
     57  H          7.1750    1.8090   12.6430 H       1  MOL1       -0.5104
     58  H          3.7450    3.8740   12.8130 H       1  MOL1       -0.6470
     59  H          5.0170    2.9740   13.3200 H       1  MOL1       -0.5994
     60  H          3.4570    5.8870   13.1810 H       1  MOL1       -0.5765
     61  H          1.4600    4.5450   10.4970 H       1  MOL1        0.9518
     62  H         -0.0720    6.2310   13.3640 H       1  MOL1       -0.6310
     63  H          1.2970    5.4510   12.9320 H       1  MOL1       -0.6324
@<TRIPOS>BOND
     1    57    48    1
     2    55    47    1
     3    50    60    1
     4    49    58    1
     5    49    59    1
     6    51    63    1
     7    51    62    1
     8    46    52    1
