@<TRIPOS>MOLECULE
bader.pqr
 63 8 0 0 0
SMALL
GASTEIGER

@<TRIPOS>ATOM
      1 MG          0.0000    0.0000    0.0000 Du      1  MOL1       -0.1257
      2 MG          4.7580    8.2610    5.1630 Du      1  MOL1        0.0430
      3 MG          9.5300    0.0260   10.8040 Du      1  MOL1       -0.8495
      4 MG         -1.5930    2.7590    0.0000 Du      1  MOL1        0.0299
      5 MG          7.9500    2.7560    5.1370 Du      1  MOL1        0.1595
      6 MG          7.8520    2.7390   10.1420 Du      1  MOL1        0.0646
      7 MG         -3.1850    5.5170    0.0000 Du      1  MOL1       -0.0501
      8 MG          6.3490    5.5050    5.1490 Du      1  MOL1        0.1625
      9 MG          6.3170    5.5690   10.2590 Du      1  MOL1        0.0781
     10 MG          3.1850    0.0000    0.0000 Du      1  MOL1       -0.0501
     11 MG         -1.6060    8.2610    5.1340 Du      1  MOL1        0.0512
     12 MG         -1.6710    8.2590   10.0940 Du      1  MOL1        0.4889
     13 MG          1.5930    2.7590    0.0000 Du      1  MOL1       -0.0055
     14 MG          1.5790    2.7390    5.1170 Du      1  MOL1        0.1344
     15 MG          1.4890    2.6720   10.1570 Du      1  MOL1        0.2542
     16 MG         -0.0000    5.5170    0.0000 Du      1  MOL1       -0.0750
     17 MG         -0.0240    5.5110    5.1550 Du      1  MOL1       -0.0578
     18 MG         -0.2010    5.5320   10.7560 Du      1  MOL1       -0.6698
     19 MG          6.3710    0.0000    0.0000 Du      1  MOL1        0.0236
     20 MG          1.5880    8.2530    5.1470 Du      1  MOL1        0.0566
     21 MG          6.3190    0.0330   10.2440 Du      1  MOL1        0.5428
     22 MG          4.7780    2.7590    0.0000 Du      1  MOL1       -0.0747
     23 MG          4.7580    2.7650    5.1790 Du      1  MOL1       -0.0977
     24 MG          4.7560    2.6450   10.6440 Du      1  MOL1       -0.7344
     25 MG          3.1850    5.5170    0.0000 Du      1  MOL1       -0.0972
     26 MG          3.1930    5.5140    5.1850 Du      1  MOL1       -0.0710
     27 MG          3.0920    5.5640   10.7410 Du      1  MOL1       -0.9817
     28 MG          0.0000    1.8390    2.6040 Du      1  MOL1        0.0021
     29 MG         -0.0440    1.8030    7.6870 Du      1  MOL1       -0.2541
     30 MG         -1.5930    4.5980    2.6040 Du      1  MOL1       -0.0087
     31 MG         -1.5980    4.6100    7.7230 Du      1  MOL1       -0.2522
     32 MG         -3.1850    7.3560    2.6040 Du      1  MOL1       -0.0151
     33 MG         -3.2400    7.3340    7.6600 Du      1  MOL1        0.0910
     34 MG          3.1850    1.8390    2.6040 Du      1  MOL1       -0.0006
     35 MG          3.1640    1.8500    7.6890 Du      1  MOL1       -0.0911
     36 MG          1.5930    4.5980    2.6040 Du      1  MOL1        0.0306
     37 MG          1.5670    4.5850    7.6480 Du      1  MOL1        0.1733
     38 MG          0.0000    7.3560    2.6040 Du      1  MOL1        0.0331
     39 MG         -0.0000    7.2990    7.7120 Du      1  MOL1        0.0762
     40 MG          6.3710    1.8390    2.6040 Du      1  MOL1       -0.0558
     41 MG          6.3190    1.8100    7.6610 Du      1  MOL1        0.1018
     42 MG          4.7780    4.5980    2.6040 Du      1  MOL1       -0.0013
     43 MG          4.7070    4.5420    7.8850 Du      1  MOL1       -0.1539
     44 MG          3.1850    7.3560    2.6040 Du      1  MOL1        0.0096
     45 MG          3.1900    7.3070    7.8590 Du      1  MOL1       -0.1434
     46  O          9.4830    0.0690   12.9290 O.3     1  MOL1        1.3280
     47  O         -1.9580    7.9660   13.5050 O.3     1  MOL1        1.2316
     48  O          7.5150    1.9860   13.5110 O.3     1  MOL1        1.2037
     49  O          4.3270    2.9300   12.6700 O.3     1  MOL1        1.3606
     50  O          3.0550    5.1610   12.6950 O.3     1  MOL1        1.3529
     51  O          0.0510    5.6210   12.8520 O.3     1  MOL1        1.3604
     52  H          8.8810    0.7530   13.3300 H       1  MOL1       -0.6272
     53  H          0.7910    0.0710   13.4040 H       1  MOL1       -0.6130
     54  H          3.2590    0.5640   13.4230 H       1  MOL1       -0.6103
     55  H         -2.1100    7.6970   12.5590 H       1  MOL1       -0.4866
     56  H         -1.6400    2.8760   13.4250 H       1  MOL1       -0.5812
     57  H          7.1710    1.8030   12.5930 H       1  MOL1       -0.4839
     58  H          3.8140    3.8480   12.8090 H       1  MOL1       -0.6344
     59  H          5.0890    2.8980   13.2820 H       1  MOL1       -0.5938
     60  H          3.5620    5.8070   13.2220 H       1  MOL1       -0.5579
     61  H          1.4350    4.5190   10.6460 H       1  MOL1        0.9431
     62  H         -0.3840    6.3660   13.3250 H       1  MOL1       -0.6293
     63  H          1.0030    5.5580   13.1210 H       1  MOL1       -0.6531
@<TRIPOS>BOND
     1    55    47    1
     2    57    48    1
     3    49    58    1
     4    49    59    1
     5    50    60    1
     6    51    63    1
     7    51    62    1
     8    46    52    1
