@<TRIPOS>MOLECULE
bader.pqr
 63 9 0 0 0
SMALL
GASTEIGER

@<TRIPOS>ATOM
      1 MG          0.0000    0.0000    0.0000 Du      1  MOL1       -0.0789
      2 MG          4.7650    8.2690    5.1520 Du      1  MOL1       -0.0413
      3 MG          4.7540    8.2740   10.6930 Du      1  MOL1       -0.5689
      4 MG         -1.5930    2.7590    0.0000 Du      1  MOL1       -0.0043
      5 MG          7.9620    2.7510    5.1340 Du      1  MOL1        0.1993
      6 MG          7.9380    2.7450   10.1030 Du      1  MOL1        0.3622
      7 MG         -3.1850    5.5170    0.0000 Du      1  MOL1       -0.0463
      8 MG          6.3650    5.4970    5.1290 Du      1  MOL1        0.0889
      9 MG          6.3580    5.5320   10.1880 Du      1  MOL1        0.1578
     10 MG          3.1850    0.0000    0.0000 Du      1  MOL1        0.0655
     11 MG         -1.5890    8.2700    5.1240 Du      1  MOL1        0.2110
     12 MG         -1.6460    8.2550   10.0470 Du      1  MOL1        0.6773
     13 MG          1.5930    2.7590    0.0000 Du      1  MOL1        0.0112
     14 MG          1.5880    2.7550    5.1380 Du      1  MOL1        0.1275
     15 MG          1.5260    2.7530   10.2560 Du      1  MOL1        0.2026
     16 MG         -0.0000    5.5170    0.0000 Du      1  MOL1       -0.0851
     17 MG         -0.0030    5.5070    5.1570 Du      1  MOL1       -0.1021
     18 MG         -0.0900    5.4990   10.7630 Du      1  MOL1       -0.5197
     19 MG          6.3710    0.0000    0.0000 Du      1  MOL1       -0.0185
     20 MG          1.5940    8.2610    5.1320 Du      1  MOL1        0.1131
     21 MG          1.5750    8.2280   10.2110 Du      1  MOL1        0.1692
     22 MG          4.7780    2.7590    0.0000 Du      1  MOL1       -0.0883
     23 MG          4.7720    2.7530    5.1590 Du      1  MOL1       -0.0483
     24 MG          4.7740    2.6440   10.5420 Du      1  MOL1       -0.5901
     25 MG          3.1850    5.5170    0.0000 Du      1  MOL1       -0.0968
     26 MG          3.1870    5.5090    5.1660 Du      1  MOL1       -0.0314
     27 MG          3.1840    5.4820   10.3180 Du      1  MOL1       -0.3840
     28 MG          0.0000    1.8390    2.6040 Du      1  MOL1       -0.0234
     29 MG          0.0110    1.7970    7.6900 Du      1  MOL1       -0.2122
     30 MG         -1.5930    4.5980    2.6040 Du      1  MOL1       -0.0233
     31 MG         -1.5780    4.6130    7.6860 Du      1  MOL1       -0.2785
     32 MG         -3.1850    7.3560    2.6040 Du      1  MOL1       -0.0589
     33 MG         -3.2120    7.3340    7.6140 Du      1  MOL1        0.3428
     34 MG          3.1850    1.8390    2.6040 Du      1  MOL1       -0.0303
     35 MG          3.1810    1.8590    7.6760 Du      1  MOL1        0.1610
     36 MG          1.5930    4.5980    2.6040 Du      1  MOL1       -0.0340
     37 MG          1.5700    4.6030    7.7250 Du      1  MOL1       -0.1664
     38 MG          0.0000    7.3560    2.6040 Du      1  MOL1        0.0319
     39 MG          0.0060    7.3190    7.6680 Du      1  MOL1        0.2936
     40 MG          6.3710    1.8390    2.6040 Du      1  MOL1       -0.0610
     41 MG          6.3400    1.8140    7.6560 Du      1  MOL1       -0.2161
     42 MG          4.7780    4.5980    2.6040 Du      1  MOL1        0.0037
     43 MG          4.7670    4.5500    7.7400 Du      1  MOL1       -0.1556
     44 MG          3.1850    7.3560    2.6040 Du      1  MOL1        0.0046
     45 MG          3.2110    7.3420    7.7420 Du      1  MOL1       -0.1682
     46  O          4.5610    8.1640   12.9300 O.3     1  MOL1        1.3280
     47  O         -2.0950    7.9960   13.4290 O.3     1  MOL1        1.2233
     48  O          7.3800    2.0050   13.3860 O.3     1  MOL1        1.2397
     49  O          4.6350    2.7020   12.7260 O.3     1  MOL1        1.3584
     50  O          3.2990    5.2130   12.6490 O.3     1  MOL1        1.3674
     51  O         -0.5190    5.6960   12.9290 O.3     1  MOL1        1.3394
     52  H          8.7800    0.6200   13.2960 H       1  MOL1       -0.6069
     53  H         -4.1190    8.2000   13.3850 H       1  MOL1       -0.6213
     54  H          3.1990    0.5540   13.5040 H       1  MOL1       -0.5833
     55  H         -2.2710    7.9370   12.4420 H       1  MOL1       -0.4724
     56  H          7.8540    2.8640   13.3200 H       1  MOL1       -0.5830
     57  H          7.2560    1.7520   12.4190 H       1  MOL1       -0.4664
     58  H          4.2920    3.5920   12.9820 H       1  MOL1       -0.6351
     59  H          5.5060    2.5680   13.1770 H       1  MOL1       -0.6167
     60  H          3.4000    6.1190   13.0250 H       1  MOL1       -0.6188
     61  H          2.3350    4.9830   12.6590 H       1  MOL1       -0.5491
     62  H         -1.0170    6.5070   13.2290 H       1  MOL1       -0.6309
     63  H          0.1520    5.5080   13.6140 H       1  MOL1       -0.5635
@<TRIPOS>BOND
     1    57    48    1
     2    55    47    1
     3    50    61    1
     4    50    60    1
     5    49    58    1
     6    49    59    1
     7    51    62    1
     8    51    63    1
     9    56    48    1
