@<TRIPOS>MOLECULE
bader.pqr
 63 8 0 0 0
SMALL
GASTEIGER

@<TRIPOS>ATOM
      1 MG          0.0000    0.0000    0.0000 Du      1  MOL1       -0.0872
      2 MG          0.0010    0.0050    5.1630 Du      1  MOL1       -0.0829
      3 MG          4.7620    8.2730   10.8010 Du      1  MOL1       -0.6490
      4 MG         -1.5930    2.7590    0.0000 Du      1  MOL1       -0.0201
      5 MG         -1.5880    2.7650    5.1370 Du      1  MOL1        0.1352
      6 MG          7.9540    2.7660   10.1370 Du      1  MOL1        0.4420
      7 MG         -3.1850    5.5170    0.0000 Du      1  MOL1       -0.0186
      8 MG         -3.1830    5.5180    5.1360 Du      1  MOL1        0.1087
      9 MG         -3.1850    5.5420   10.2540 Du      1  MOL1        0.1148
     10 MG          3.1850    0.0000    0.0000 Du      1  MOL1        0.0188
     11 MG          3.1910    0.0060    5.1380 Du      1  MOL1        0.1658
     12 MG          3.1790    0.0090   10.1470 Du      1  MOL1        0.4205
     13 MG          1.5930    2.7590    0.0000 Du      1  MOL1       -0.0225
     14 MG          1.5950    2.7600    5.1360 Du      1  MOL1        0.1084
     15 MG          1.5970    2.7800   10.2500 Du      1  MOL1        0.1158
     16 MG         -0.0000    5.5170    0.0000 Du      1  MOL1       -0.0785
     17 MG          0.0020    5.5220    5.1630 Du      1  MOL1       -0.0761
     18 MG         -0.0190    5.5050   10.7950 Du      1  MOL1       -0.6312
     19 MG          6.3710    0.0000    0.0000 Du      1  MOL1       -0.0139
     20 MG          6.3730    0.0010    5.1360 Du      1  MOL1        0.1104
     21 MG          6.3720    0.0200   10.2600 Du      1  MOL1        0.0996
     22 MG          4.7780    2.7590    0.0000 Du      1  MOL1       -0.0926
     23 MG          4.7790    2.7640    5.1630 Du      1  MOL1       -0.0885
     24 MG          4.7640    2.7510   10.7970 Du      1  MOL1       -0.6525
     25 MG          3.1850    5.5170    0.0000 Du      1  MOL1        0.0019
     26 MG          3.1910    5.5230    5.1380 Du      1  MOL1        0.1423
     27 MG          3.1770    5.5280   10.1500 Du      1  MOL1        0.3885
     28 MG          0.0000    1.8390    2.6040 Du      1  MOL1       -0.0162
     29 MG          0.0180    1.8200    7.7040 Du      1  MOL1        0.2030
     30 MG         -1.5930    4.5980    2.6040 Du      1  MOL1       -0.0227
     31 MG         -1.5750    4.6300    7.7040 Du      1  MOL1       -0.2285
     32 MG         -3.1850    7.3560    2.6040 Du      1  MOL1       -0.0277
     33 MG         -3.2020    7.3600    7.6810 Du      1  MOL1       -0.1435
     34 MG          3.1850    1.8390    2.6040 Du      1  MOL1       -0.0161
     35 MG          3.2040    1.8690    7.7040 Du      1  MOL1        0.2076
     36 MG          1.5930    4.5980    2.6040 Du      1  MOL1       -0.0283
     37 MG          1.5760    4.6020    7.6820 Du      1  MOL1       -0.1431
     38 MG          0.0000    7.3560    2.6040 Du      1  MOL1       -0.0093
     39 MG          0.0180    7.3360    7.7070 Du      1  MOL1        0.2361
     40 MG          6.3710    1.8390    2.6040 Du      1  MOL1       -0.0291
     41 MG          6.3520    1.8410    7.6800 Du      1  MOL1       -0.1673
     42 MG          4.7780    4.5980    2.6040 Du      1  MOL1       -0.0113
     43 MG          4.7940    4.5770    7.7080 Du      1  MOL1       -0.1852
     44 MG          3.1850    7.3560    2.6040 Du      1  MOL1       -0.0122
     45 MG          3.2040    7.3880    7.7070 Du      1  MOL1       -0.2139
     46  O          4.7350    8.2410   12.9650 O.3     1  MOL1        1.3699
     47  O         -1.9940    7.5830   13.5250 O.3     1  MOL1        1.2134
     48  O          7.5870    2.1370   13.5220 O.3     1  MOL1        1.2087
     49  O          4.7370    2.7000   12.9620 O.3     1  MOL1        1.3635
     50  O          2.7630    4.8160   13.5220 O.3     1  MOL1        1.2186
     51  O         -0.0750    5.4140   12.9680 O.3     1  MOL1        1.3646
     52  H          9.0030    0.6850   13.4100 H       1  MOL1       -0.6327
     53  H         -3.9500    8.1370   13.4170 H       1  MOL1       -0.6397
     54  H          3.2870    0.1500   13.5020 H       1  MOL1       -0.5817
     55  H         -2.1290    7.3740   12.5550 H       1  MOL1       -0.4793
     56  H         -1.4800    2.9880   13.4910 H       1  MOL1       -0.5778
     57  H          7.4530    1.9180   12.5550 H       1  MOL1       -0.4773
     58  H          4.2040    3.4020   13.4080 H       1  MOL1       -0.6210
     59  H          5.6130    2.6270   13.4130 H       1  MOL1       -0.6448
     60  H          3.2460    5.6700   13.5030 H       1  MOL1       -0.5922
     61  H          2.6340    4.6080   12.5500 H       1  MOL1       -0.4728
     62  H         -0.5910    6.1300   13.4120 H       1  MOL1       -0.6362
     63  H          0.8000    5.3230   13.4170 H       1  MOL1       -0.6344
@<TRIPOS>BOND
     1    61    50    1
     2    57    48    1
     3    55    47    1
     4    49    58    1
     5    49    59    1
     6    51    62    1
     7    51    63    1
     8    60    50    1
