@<TRIPOS>MOLECULE
bader.pqr
 63 10 0 0 0
SMALL
GASTEIGER

@<TRIPOS>ATOM
      1 MG          0.0000    0.0000    0.0000 Du      1  MOL1       -0.1011
      2 MG          4.7740    8.2740    5.1530 Du      1  MOL1       -0.0785
      3 MG         -0.0030    0.0170   10.7540 Du      1  MOL1       -0.7088
      4 MG         -1.5930    2.7590    0.0000 Du      1  MOL1        0.0099
      5 MG         -1.5880    2.7540    5.1340 Du      1  MOL1        0.2172
      6 MG          7.9340    2.7480   10.1070 Du      1  MOL1        0.3317
      7 MG         -3.1850    5.5170    0.0000 Du      1  MOL1       -0.0671
      8 MG          6.3710    5.5000    5.1320 Du      1  MOL1        0.0542
      9 MG         -3.1750    5.5420   10.2120 Du      1  MOL1        0.1335
     10 MG          3.1850    0.0000    0.0000 Du      1  MOL1        0.0471
     11 MG         -1.5850    8.2740    5.1260 Du      1  MOL1        0.1768
     12 MG         -1.6350    8.2530   10.0480 Du      1  MOL1        0.7016
     13 MG          1.5930    2.7590    0.0000 Du      1  MOL1        0.0016
     14 MG          1.5940    2.7600    5.1430 Du      1  MOL1        0.1162
     15 MG          1.5100    2.7550   10.2210 Du      1  MOL1        0.2311
     16 MG         -0.0000    5.5170    0.0000 Du      1  MOL1       -0.1066
     17 MG          0.0030    5.5110    5.1620 Du      1  MOL1       -0.1252
     18 MG         -0.0890    5.4920   10.7720 Du      1  MOL1       -0.5716
     19 MG          6.3710    0.0000    0.0000 Du      1  MOL1        0.0192
     20 MG          1.5980    8.2630    5.1290 Du      1  MOL1        0.1396
     21 MG          1.5980    8.2350   10.2090 Du      1  MOL1        0.1260
     22 MG          4.7780    2.7590    0.0000 Du      1  MOL1       -0.0567
     23 MG          4.7750    2.7570    5.1630 Du      1  MOL1        0.0066
     24 MG          4.7980    2.6320   10.5090 Du      1  MOL1       -0.5460
     25 MG          3.1850    5.5170    0.0000 Du      1  MOL1       -0.0926
     26 MG          3.1960    5.5110    5.1690 Du      1  MOL1       -0.0089
     27 MG          3.2490    5.5420   10.2810 Du      1  MOL1       -0.2743
     28 MG          0.0000    1.8390    2.6040 Du      1  MOL1       -0.0027
     29 MG          0.0140    1.8010    7.6930 Du      1  MOL1       -0.1794
     30 MG         -1.5930    4.5980    2.6040 Du      1  MOL1       -0.0134
     31 MG         -1.5630    4.6180    7.6930 Du      1  MOL1       -0.2339
     32 MG         -3.1850    7.3560    2.6040 Du      1  MOL1       -0.0555
     33 MG         -3.2030    7.3350    7.6190 Du      1  MOL1        0.3640
     34 MG          3.1850    1.8390    2.6040 Du      1  MOL1       -0.0252
     35 MG          3.1890    1.8650    7.6840 Du      1  MOL1        0.1502
     36 MG          1.5930    4.5980    2.6040 Du      1  MOL1       -0.0001
     37 MG          1.5900    4.6170    7.7290 Du      1  MOL1       -0.1661
     38 MG          0.0000    7.3560    2.6040 Du      1  MOL1        0.0561
     39 MG          0.0160    7.3250    7.6710 Du      1  MOL1        0.2553
     40 MG          6.3710    1.8390    2.6040 Du      1  MOL1       -0.0923
     41 MG          6.3490    1.8130    7.6490 Du      1  MOL1       -0.2110
     42 MG          4.7780    4.5980    2.6040 Du      1  MOL1       -0.0224
     43 MG          4.7850    4.5510    7.7510 Du      1  MOL1       -0.2308
     44 MG          3.1850    7.3560    2.6040 Du      1  MOL1       -0.0145
     45 MG          3.2200    7.3520    7.7300 Du      1  MOL1       -0.1557
     46  O          9.4350    0.0680   12.9260 O.3     1  MOL1        1.3538
     47  O         -1.9970    8.0420   13.4330 O.3     1  MOL1        1.2116
     48  O          7.3580    2.0700   13.4140 O.3     1  MOL1        1.2272
     49  O          4.5640    2.6610   12.6850 O.3     1  MOL1        1.3567
     50  O          3.0440    4.9600   12.4800 O.3     1  MOL1        1.3392
     51  O         -0.4460    5.7340   12.9410 O.3     1  MOL1        1.3522
     52  H          8.8410    0.7570   13.3140 H       1  MOL1       -0.6286
     53  H          0.7360    0.0840   13.4110 H       1  MOL1       -0.6245
     54  H          3.3000    0.6020   13.4330 H       1  MOL1       -0.5928
     55  H         -2.2210    7.9240   12.4630 H       1  MOL1       -0.4605
     56  H          7.8070    2.9390   13.3160 H       1  MOL1       -0.5776
     57  H          7.2170    1.7900   12.4590 H       1  MOL1       -0.4707
     58  H          4.1180    3.5180   12.9020 H       1  MOL1       -0.6326
     59  H          5.4210    2.6200   13.1760 H       1  MOL1       -0.6204
     60  H          2.8830    5.7810   12.9980 H       1  MOL1       -0.5831
     61  H          2.1430    4.5960   12.1720 H       1  MOL1       -0.4285
     62  H         -0.9250    6.5510   13.2530 H       1  MOL1       -0.6506
     63  H          0.2200    5.5130   13.6210 H       1  MOL1       -0.5680
@<TRIPOS>BOND
     1    61    50    1
     2    57    48    1
     3    55    47    1
     4    50    60    1
     5    49    58    1
     6    49    59    1
     7    46    52    1
     8    51    62    1
     9    51    63    1
    10    56    48    1
