@<TRIPOS>MOLECULE
bader.pqr
 63 9 0 0 0
SMALL
GASTEIGER

@<TRIPOS>ATOM
      1 MG          0.0000    0.0000    0.0000 Du      1  MOL1       -0.1195
      2 MG          4.7730    8.2660    5.1550 Du      1  MOL1        0.0337
      3 MG         -0.0010    0.0260   10.7840 Du      1  MOL1       -0.8074
      4 MG         -1.5930    2.7590    0.0000 Du      1  MOL1        0.0060
      5 MG         -1.5880    2.7520    5.1390 Du      1  MOL1        0.1395
      6 MG          7.8880    2.7330   10.1120 Du      1  MOL1        0.1948
      7 MG         -3.1850    5.5170    0.0000 Du      1  MOL1       -0.0533
      8 MG          6.3660    5.5040    5.1420 Du      1  MOL1        0.1396
      9 MG         -3.1810    5.5530   10.2330 Du      1  MOL1        0.1017
     10 MG          3.1850    0.0000    0.0000 Du      1  MOL1       -0.0274
     11 MG         -1.5890    8.2690    5.1240 Du      1  MOL1        0.1086
     12 MG         -1.6520    8.2490   10.0640 Du      1  MOL1        0.6192
     13 MG          1.5930    2.7590    0.0000 Du      1  MOL1       -0.0023
     14 MG          1.5920    2.7460    5.1320 Du      1  MOL1        0.1176
     15 MG          1.5100    2.7070   10.2130 Du      1  MOL1        0.0153
     16 MG         -0.0000    5.5170    0.0000 Du      1  MOL1       -0.0796
     17 MG         -0.0070    5.5140    5.1560 Du      1  MOL1       -0.0908
     18 MG         -0.1450    5.5270   10.8280 Du      1  MOL1       -0.7866
     19 MG          6.3710    0.0000    0.0000 Du      1  MOL1        0.0135
     20 MG          1.6000    8.2580    5.1380 Du      1  MOL1        0.0515
     21 MG          1.5860    8.2510   10.2250 Du      1  MOL1        0.5910
     22 MG          4.7780    2.7590    0.0000 Du      1  MOL1       -0.0857
     23 MG          4.7750    2.7610    5.1810 Du      1  MOL1       -0.1296
     24 MG          4.8020    2.5920   10.6080 Du      1  MOL1       -0.7286
     25 MG          3.1850    5.5170    0.0000 Du      1  MOL1       -0.0797
     26 MG          3.2070    5.5150    5.1820 Du      1  MOL1       -0.0471
     27 MG          3.1250    5.5070   10.6400 Du      1  MOL1       -1.0349
     28 MG          0.0000    1.8390    2.6040 Du      1  MOL1       -0.0389
     29 MG          0.0020    1.8040    7.7030 Du      1  MOL1       -0.2735
     30 MG         -1.5930    4.5980    2.6040 Du      1  MOL1        0.0090
     31 MG         -1.5580    4.6110    7.7110 Du      1  MOL1       -0.2416
     32 MG         -3.1850    7.3560    2.6040 Du      1  MOL1       -0.0156
     33 MG         -3.2100    7.3310    7.6410 Du      1  MOL1        0.0695
     34 MG          3.1850    1.8390    2.6040 Du      1  MOL1        0.0122
     35 MG          3.1850    1.8630    7.7030 Du      1  MOL1       -0.0227
     36 MG          1.5930    4.5980    2.6040 Du      1  MOL1        0.0237
     37 MG          1.6000    4.6030    7.6760 Du      1  MOL1        0.1827
     38 MG          0.0000    7.3560    2.6040 Du      1  MOL1        0.0232
     39 MG          0.0180    7.3050    7.6940 Du      1  MOL1        0.1645
     40 MG          6.3710    1.8390    2.6040 Du      1  MOL1       -0.0455
     41 MG          6.3450    1.8020    7.6580 Du      1  MOL1       -0.0188
     42 MG          4.7780    4.5980    2.6040 Du      1  MOL1       -0.0119
     43 MG          4.7510    4.5440    7.8630 Du      1  MOL1       -0.1572
     44 MG          3.1850    7.3560    2.6040 Du      1  MOL1        0.0360
     45 MG          3.2270    7.3150    7.8250 Du      1  MOL1       -0.0921
     46  O          9.4480    0.1040   12.9200 O.3     1  MOL1        1.3455
     47  O         -1.9620    8.0330   13.4440 O.3     1  MOL1        1.2211
     48  O          7.4320    2.0380   13.4410 O.3     1  MOL1        1.2198
     49  O          4.4720    2.7560   12.6580 O.3     1  MOL1        1.3699
     50  O          3.4260    5.0060   12.5130 O.3     1  MOL1        1.3643
     51  O         -0.3830    5.7170   12.9460 O.3     1  MOL1        1.3287
     52  H          8.8430    0.7880   13.3090 H       1  MOL1       -0.6336
     53  H          0.7340    0.0950   13.4270 H       1  MOL1       -0.6242
     54  H          3.3050    0.6110   13.4310 H       1  MOL1       -0.6111
     55  H         -2.2090    7.9040   12.4830 H       1  MOL1       -0.4656
     56  H          7.8210    2.9330   13.3450 H       1  MOL1       -0.5701
     57  H          7.1850    1.8010   12.5010 H       1  MOL1       -0.4945
     58  H          4.0360    3.7410   12.7720 H       1  MOL1       -0.6406
     59  H          5.2840    2.7020   13.2030 H       1  MOL1       -0.6011
     60  H          3.3820    5.6750   13.2130 H       1  MOL1       -0.5514
     61  H          1.4200    4.4470   10.9930 H       1  MOL1        0.9265
     62  H         -0.8640    6.5250   13.2760 H       1  MOL1       -0.6440
     63  H          0.3850    5.5670   13.5310 H       1  MOL1       -0.6021
@<TRIPOS>BOND
     1    55    47    1
     2    57    48    1
     3    50    60    1
     4    49    58    1
     5    49    59    1
     6    46    52    1
     7    51    62    1
     8    51    63    1
     9    56    48    1
