@<TRIPOS>MOLECULE
bader.pqr
 63 9 0 0 0
SMALL
GASTEIGER

@<TRIPOS>ATOM
      1 MG          0.0000    0.0000    0.0000 Du      1  MOL1       -0.0830
      2 MG          9.5400    0.0100    5.1510 Du      1  MOL1       -0.0772
      3 MG          4.7150    8.2690   10.7420 Du      1  MOL1       -0.6314
      4 MG         -1.5930    2.7590    0.0000 Du      1  MOL1       -0.0117
      5 MG          7.9550    2.7670    5.1330 Du      1  MOL1        0.1245
      6 MG          7.9210    2.7900   10.1370 Du      1  MOL1        0.3316
      7 MG         -3.1850    5.5170    0.0000 Du      1  MOL1       -0.0228
      8 MG          6.3590    5.5180    5.1270 Du      1  MOL1        0.1135
      9 MG          6.3290    5.5600   10.2190 Du      1  MOL1        0.1029
     10 MG          3.1850    0.0000    0.0000 Du      1  MOL1        0.0225
     11 MG          3.1790    0.0090    5.1290 Du      1  MOL1        0.1796
     12 MG          3.1230    0.0310   10.0920 Du      1  MOL1        0.5257
     13 MG          1.5930    2.7590    0.0000 Du      1  MOL1       -0.0180
     14 MG          1.5800    2.7600    5.1280 Du      1  MOL1        0.1145
     15 MG          1.5310    2.8050   10.2540 Du      1  MOL1        0.0900
     16 MG         -0.0000    5.5170    0.0000 Du      1  MOL1       -0.0899
     17 MG         -0.0160    5.5270    5.1510 Du      1  MOL1       -0.0987
     18 MG         -0.0630    5.5460   10.7860 Du      1  MOL1       -0.6398
     19 MG          6.3710    0.0000    0.0000 Du      1  MOL1       -0.0167
     20 MG          6.3580    0.0040    5.1290 Du      1  MOL1        0.1233
     21 MG          6.3290    0.0390   10.2140 Du      1  MOL1        0.1604
     22 MG          4.7780    2.7590    0.0000 Du      1  MOL1       -0.0830
     23 MG          4.7630    2.7670    5.1550 Du      1  MOL1       -0.0726
     24 MG          4.7160    2.7700   10.7040 Du      1  MOL1       -0.6720
     25 MG          3.1850    5.5170    0.0000 Du      1  MOL1       -0.0157
     26 MG          3.1780    5.5250    5.1290 Du      1  MOL1        0.1282
     27 MG          3.1140    5.5390   10.1020 Du      1  MOL1        0.4678
     28 MG          0.0000    1.8390    2.6040 Du      1  MOL1       -0.0003
     29 MG         -0.0070    1.8210    7.7020 Du      1  MOL1       -0.1989
     30 MG         -1.5930    4.5980    2.6040 Du      1  MOL1       -0.0091
     31 MG         -1.5960    4.6370    7.6930 Du      1  MOL1        0.2536
     32 MG         -3.1850    7.3560    2.6040 Du      1  MOL1       -0.0431
     33 MG         -3.2280    7.3630    7.6440 Du      1  MOL1       -0.1539
     34 MG          3.1850    1.8390    2.6040 Du      1  MOL1       -0.0546
     35 MG          3.1770    1.8870    7.6920 Du      1  MOL1       -0.2800
     36 MG          1.5930    4.5980    2.6040 Du      1  MOL1       -0.0425
     37 MG          1.5450    4.6030    7.6500 Du      1  MOL1       -0.1565
     38 MG          0.0000    7.3560    2.6040 Du      1  MOL1        0.0117
     39 MG         -0.0060    7.3390    7.6910 Du      1  MOL1       -0.2497
     40 MG          6.3710    1.8390    2.6040 Du      1  MOL1       -0.0385
     41 MG          6.3290    1.8550    7.6630 Du      1  MOL1       -0.1599
     42 MG          4.7780    4.5980    2.6040 Du      1  MOL1       -0.0069
     43 MG          4.7700    4.5830    7.6920 Du      1  MOL1        0.2624
     44 MG          3.1850    7.3560    2.6040 Du      1  MOL1       -0.0193
     45 MG          3.1800    7.3950    7.6840 Du      1  MOL1        0.1763
     46  O          4.5710    8.1330   12.9270 O.3     1  MOL1        1.3516
     47  O         -2.1090    7.8400   13.4870 O.3     1  MOL1        1.2249
     48  O          7.3940    1.9620   13.4490 O.3     1  MOL1        1.2182
     49  O          4.6240    2.8060   12.8520 O.3     1  MOL1        1.3499
     50  O          2.9820    5.0570   13.4860 O.3     1  MOL1        1.2337
     51  O         -0.2200    5.6920   12.9420 O.3     1  MOL1        1.3118
     52  H          8.7740    0.5530   13.3360 H       1  MOL1       -0.6289
     53  H         -4.1150    8.1350   13.3960 H       1  MOL1       -0.6284
     54  H          3.1330    0.4250   13.5650 H       1  MOL1       -0.6006
     55  H         -2.2390    7.7430   12.4980 H       1  MOL1       -0.4696
     56  H          7.9090    2.7980   13.4230 H       1  MOL1       -0.5834
     57  H          7.2430    1.7630   12.4760 H       1  MOL1       -0.4663
     58  H          4.1770    3.6000   13.2490 H       1  MOL1       -0.6238
     59  H          5.4780    2.6500   13.3200 H       1  MOL1       -0.6266
     60  H          3.4640    5.9060   13.3750 H       1  MOL1       -0.5908
     61  H          2.6150    4.8820   12.5770 H       1  MOL1       -0.4988
     62  H         -0.7950    6.4140   13.3050 H       1  MOL1       -0.6229
     63  H          0.6070    5.6720   13.4670 H       1  MOL1       -0.5929
@<TRIPOS>BOND
     1    57    48    1
     2    55    47    1
     3    61    50    1
     4    49    58    1
     5    49    59    1
     6    51    62    1
     7    51    63    1
     8    60    50    1
     9    56    48    1
