@<TRIPOS>MOLECULE
bader.pqr
 63 10 0 0 0
SMALL
GASTEIGER

@<TRIPOS>ATOM
      1 MG          0.0000    0.0000    0.0000 Du      1  MOL1       -0.1129
      2 MG          4.7750    8.2740    5.1570 Du      1  MOL1       -0.0466
      3 MG          0.0170    0.0370   10.7600 Du      1  MOL1       -0.7478
      4 MG         -1.5930    2.7590    0.0000 Du      1  MOL1        0.0166
      5 MG         -1.5840    2.7540    5.1370 Du      1  MOL1        0.2022
      6 MG          7.9210    2.7470   10.1060 Du      1  MOL1        0.3549
      7 MG         -3.1850    5.5170    0.0000 Du      1  MOL1       -0.0576
      8 MG          6.3690    5.5030    5.1380 Du      1  MOL1        0.0412
      9 MG         -3.1360    5.5500   10.2190 Du      1  MOL1        0.1461
     10 MG          3.1850    0.0000    0.0000 Du      1  MOL1        0.0180
     11 MG          3.1920    0.0020    5.1250 Du      1  MOL1        0.1377
     12 MG         -1.6270    8.2520   10.0580 Du      1  MOL1        0.7448
     13 MG          1.5930    2.7590    0.0000 Du      1  MOL1       -0.0036
     14 MG          1.5950    2.7570    5.1510 Du      1  MOL1        0.0983
     15 MG          1.5030    2.7880   10.2750 Du      1  MOL1       -0.2417
     16 MG         -0.0000    5.5170    0.0000 Du      1  MOL1       -0.1043
     17 MG          0.0030    5.5150    5.1660 Du      1  MOL1       -0.1312
     18 MG         -0.0410    5.4570   10.8450 Du      1  MOL1       -0.8708
     19 MG          6.3710    0.0000    0.0000 Du      1  MOL1        0.0258
     20 MG          1.6020    8.2610    5.1320 Du      1  MOL1        0.1270
     21 MG          1.6020    8.2440   10.2060 Du      1  MOL1        0.1816
     22 MG          4.7780    2.7590    0.0000 Du      1  MOL1       -0.0533
     23 MG          4.7740    2.7600    5.1730 Du      1  MOL1       -0.0194
     24 MG          4.8230    2.6140   10.5240 Du      1  MOL1       -0.4740
     25 MG          3.1850    5.5170    0.0000 Du      1  MOL1       -0.0831
     26 MG          3.2010    5.5140    5.1800 Du      1  MOL1       -0.0114
     27 MG          3.2830    5.5700   10.3640 Du      1  MOL1       -0.4741
     28 MG          0.0000    1.8390    2.6040 Du      1  MOL1       -0.0150
     29 MG          0.0240    1.8070    7.7160 Du      1  MOL1       -0.2149
     30 MG         -1.5930    4.5980    2.6040 Du      1  MOL1       -0.0230
     31 MG         -1.5520    4.6160    7.6970 Du      1  MOL1       -0.1881
     32 MG         -3.1850    7.3560    2.6040 Du      1  MOL1       -0.0310
     33 MG         -3.1940    7.3340    7.6250 Du      1  MOL1        0.1818
     34 MG          3.1850    1.8390    2.6040 Du      1  MOL1       -0.0383
     35 MG          3.1910    1.8740    7.7120 Du      1  MOL1        0.0853
     36 MG          1.5930    4.5980    2.6040 Du      1  MOL1        0.0511
     37 MG          1.6030    4.6230    7.7400 Du      1  MOL1       -0.0608
     38 MG          0.0000    7.3560    2.6040 Du      1  MOL1        0.0339
     39 MG          0.0170    7.3250    7.6780 Du      1  MOL1        0.2253
     40 MG          6.3710    1.8390    2.6040 Du      1  MOL1       -0.0943
     41 MG          6.3530    1.8110    7.6470 Du      1  MOL1       -0.1098
     42 MG          4.7780    4.5980    2.6040 Du      1  MOL1       -0.0221
     43 MG          4.7860    4.5500    7.7940 Du      1  MOL1       -0.2482
     44 MG          3.1850    7.3560    2.6040 Du      1  MOL1       -0.0045
     45 MG          3.2300    7.3470    7.7600 Du      1  MOL1       -0.0961
     46  O          9.4460    0.0970   12.9160 O.3     1  MOL1        1.3505
     47  O         -1.9840    8.0410   13.4370 O.3     1  MOL1        1.2127
     48  O          7.3720    2.0650   13.4210 O.3     1  MOL1        1.2163
     49  O          4.5280    2.6920   12.6610 O.3     1  MOL1        1.3874
     50  O          3.0610    4.9100   12.3550 O.3     1  MOL1        1.2582
     51  O         -0.4380    5.7330   12.9650 O.3     1  MOL1        1.3345
     52  H          8.8410    0.7720   13.3130 H       1  MOL1       -0.6314
     53  H          0.7350    0.0930   13.4210 H       1  MOL1       -0.6242
     54  H          3.3020    0.6070   13.4340 H       1  MOL1       -0.5949
     55  H         -2.2180    7.9230   12.4690 H       1  MOL1       -0.4627
     56  H          7.8070    2.9400   13.3220 H       1  MOL1       -0.5761
     57  H          7.2010    1.7980   12.4700 H       1  MOL1       -0.4712
     58  H          4.0470    3.5610   12.8160 H       1  MOL1       -0.6605
     59  H          5.3620    2.6800   13.1820 H       1  MOL1       -0.6208
     60  H          2.8740    5.6450   12.9800 H       1  MOL1       -0.5479
     61  H          1.9600    4.5170   11.7500 H       1  MOL1        0.5631
     62  H         -0.9160    6.5520   13.2750 H       1  MOL1       -0.6428
     63  H          0.2550    5.5270   13.6200 H       1  MOL1       -0.5838
@<TRIPOS>BOND
     1    61    50    1
     2    50    60    1
     3    55    47    1
     4    57    48    1
     5    49    58    1
     6    49    59    1
     7    46    52    1
     8    51    62    1
     9    51    63    1
    10    56    48    1
