@<TRIPOS>MOLECULE
bader.pqr
 63 8 0 0 0
SMALL
GASTEIGER

@<TRIPOS>ATOM
      1 MG          0.0000    0.0000    0.0000 Du      1  MOL1       -0.0771
      2 MG          9.5450    0.0110    5.1570 Du      1  MOL1       -0.0691
      3 MG          4.7240    8.2650   10.7520 Du      1  MOL1       -0.6156
      4 MG         -1.5930    2.7590    0.0000 Du      1  MOL1        0.0062
      5 MG         -1.5970    2.7690    5.1350 Du      1  MOL1        0.1405
      6 MG          7.9310    2.7880   10.1550 Du      1  MOL1        0.3121
      7 MG         -3.1850    5.5170    0.0000 Du      1  MOL1       -0.0200
      8 MG          6.3620    5.5220    5.1310 Du      1  MOL1        0.1072
      9 MG         -3.2050    5.5530   10.2350 Du      1  MOL1        0.1120
     10 MG          3.1850    0.0000    0.0000 Du      1  MOL1        0.0023
     11 MG          3.1810    0.0110    5.1340 Du      1  MOL1        0.1534
     12 MG          3.1400    0.0310   10.1250 Du      1  MOL1        0.4300
     13 MG          1.5930    2.7590    0.0000 Du      1  MOL1       -0.0277
     14 MG          1.5830    2.7620    5.1320 Du      1  MOL1        0.1005
     15 MG          1.5510    2.7980   10.2610 Du      1  MOL1        0.0769
     16 MG         -0.0000    5.5170    0.0000 Du      1  MOL1       -0.0990
     17 MG         -0.0120    5.5290    5.1560 Du      1  MOL1       -0.1027
     18 MG         -0.0370    5.5420   10.7910 Du      1  MOL1       -0.6623
     19 MG          6.3710    0.0000    0.0000 Du      1  MOL1       -0.0140
     20 MG          6.3600    0.0060    5.1320 Du      1  MOL1        0.1334
     21 MG          6.3390    0.0460   10.2240 Du      1  MOL1        0.1549
     22 MG          4.7780    2.7590    0.0000 Du      1  MOL1       -0.0814
     23 MG          4.7660    2.7680    5.1580 Du      1  MOL1       -0.0777
     24 MG          4.7250    2.7760   10.7580 Du      1  MOL1       -0.6546
     25 MG          3.1850    5.5170    0.0000 Du      1  MOL1       -0.0036
     26 MG          3.1790    5.5280    5.1310 Du      1  MOL1        0.1467
     27 MG          3.1380    5.5340   10.1000 Du      1  MOL1        0.5283
     28 MG          0.0000    1.8390    2.6040 Du      1  MOL1       -0.0039
     29 MG         -0.0030    1.8250    7.7070 Du      1  MOL1       -0.1177
     30 MG         -1.5930    4.5980    2.6040 Du      1  MOL1       -0.0142
     31 MG         -1.5890    4.6360    7.6980 Du      1  MOL1        0.2663
     32 MG         -3.1850    7.3560    2.6040 Du      1  MOL1       -0.0310
     33 MG         -3.2210    7.3670    7.6640 Du      1  MOL1       -0.1553
     34 MG          3.1850    1.8390    2.6040 Du      1  MOL1       -0.0251
     35 MG          3.1850    1.8860    7.7030 Du      1  MOL1       -0.2564
     36 MG          1.5930    4.5980    2.6040 Du      1  MOL1       -0.0408
     37 MG          1.5530    4.6040    7.6600 Du      1  MOL1       -0.1646
     38 MG          0.0000    7.3560    2.6040 Du      1  MOL1       -0.0041
     39 MG         -0.0030    7.3420    7.7010 Du      1  MOL1       -0.2445
     40 MG          6.3710    1.8390    2.6040 Du      1  MOL1       -0.0194
     41 MG          6.3370    1.8570    7.6710 Du      1  MOL1       -0.1198
     42 MG          4.7780    4.5980    2.6040 Du      1  MOL1       -0.0212
     43 MG          4.7800    4.5860    7.6920 Du      1  MOL1        0.2271
     44 MG          3.1850    7.3560    2.6040 Du      1  MOL1       -0.0332
     45 MG          3.1850    7.3970    7.6890 Du      1  MOL1        0.1100
     46  O          4.5980    8.0920   12.9360 O.3     1  MOL1        1.3340
     47  O         -2.0870    7.6910   13.5050 O.3     1  MOL1        1.2239
     48  O          7.4450    1.9400   13.4970 O.3     1  MOL1        1.1992
     49  O          4.6520    2.7870   12.9170 O.3     1  MOL1        1.3667
     50  O          2.9070    5.0640   13.5020 O.3     1  MOL1        1.2073
     51  O         -0.0650    5.6290   12.9460 O.3     1  MOL1        1.3479
     52  H          8.8230    0.5180   13.3640 H       1  MOL1       -0.6263
     53  H         -4.0830    8.0580   13.3940 H       1  MOL1       -0.6140
     54  H          3.1340    0.2910   13.5210 H       1  MOL1       -0.5700
     55  H         -2.2080    7.5180   12.5250 H       1  MOL1       -0.4993
     56  H         -1.5890    2.7710   13.4870 H       1  MOL1       -0.5826
     57  H          7.2940    1.7590   12.5210 H       1  MOL1       -0.4548
     58  H          4.1940    3.5580   13.3380 H       1  MOL1       -0.6412
     59  H          5.5060    2.6270   13.3840 H       1  MOL1       -0.6284
     60  H          3.4110    5.9040   13.4280 H       1  MOL1       -0.5857
     61  H          2.6820    4.8520   12.5530 H       1  MOL1       -0.4751
     62  H         -0.6330    6.3220   13.3640 H       1  MOL1       -0.6253
     63  H          0.7970    5.5980   13.4200 H       1  MOL1       -0.6280
@<TRIPOS>BOND
     1    57    48    1
     2    55    47    1
     3    61    50    1
     4    49    58    1
     5    49    59    1
     6    51    62    1
     7    51    63    1
     8    60    50    1
