@<TRIPOS>MOLECULE
bader.pqr
 63 8 0 0 0
SMALL
GASTEIGER

@<TRIPOS>ATOM
      1 MG          0.0000    0.0000    0.0000 Du      1  MOL1       -0.1023
      2 MG          9.5410    0.0150    5.1640 Du      1  MOL1        0.0760
      3 MG         -0.0450    0.1170   10.7680 Du      1  MOL1       -0.7849
      4 MG         -1.5930    2.7590    0.0000 Du      1  MOL1        0.0347
      5 MG         -1.6030    2.7800    5.1470 Du      1  MOL1        0.0617
      6 MG          7.8420    2.8280   10.1950 Du      1  MOL1        0.2108
      7 MG         -3.1850    5.5170    0.0000 Du      1  MOL1       -0.0603
      8 MG         -3.1940    5.5420    5.1500 Du      1  MOL1        0.0994
      9 MG          6.3070    5.6110   10.2820 Du      1  MOL1       -0.1820
     10 MG          3.1850    0.0000    0.0000 Du      1  MOL1       -0.0404
     11 MG          3.1820    0.0140    5.1330 Du      1  MOL1        0.0687
     12 MG          3.1070    0.1060   10.1010 Du      1  MOL1        0.4368
     13 MG          1.5930    2.7590    0.0000 Du      1  MOL1       -0.0357
     14 MG          1.5760    2.7580    5.1260 Du      1  MOL1        0.0716
     15 MG          1.4630    2.7660   10.1920 Du      1  MOL1        0.2548
     16 MG         -0.0000    5.5170    0.0000 Du      1  MOL1       -0.0936
     17 MG         -0.0200    5.5460    5.1520 Du      1  MOL1       -0.0128
     18 MG         -0.1800    5.6430   10.7720 Du      1  MOL1       -0.7961
     19 MG          6.3710    0.0000    0.0000 Du      1  MOL1       -0.0189
     20 MG          6.3580    0.0040    5.1520 Du      1  MOL1        0.0479
     21 MG          6.3410    0.1100   10.2580 Du      1  MOL1       -0.0117
     22 MG          4.7780    2.7590    0.0000 Du      1  MOL1       -0.0966
     23 MG          4.7640    2.7830    5.1730 Du      1  MOL1       -0.1391
     24 MG          4.7060    2.7630   10.8670 Du      1  MOL1       -0.9384
     25 MG          3.1850    5.5170    0.0000 Du      1  MOL1       -0.0371
     26 MG          3.1970    5.5410    5.1410 Du      1  MOL1        0.0299
     27 MG          3.0340    5.6410   10.3220 Du      1  MOL1       -0.4234
     28 MG          0.0000    1.8390    2.6040 Du      1  MOL1       -0.0764
     29 MG         -0.0500    1.8500    7.7180 Du      1  MOL1       -0.2488
     30 MG         -1.5930    4.5980    2.6040 Du      1  MOL1        0.0454
     31 MG         -1.5800    4.6510    7.7390 Du      1  MOL1       -0.1260
     32 MG         -3.1850    7.3560    2.6040 Du      1  MOL1        0.0102
     33 MG         -3.2330    7.3980    7.6930 Du      1  MOL1       -0.1978
     34 MG          3.1850    1.8390    2.6040 Du      1  MOL1       -0.0080
     35 MG          3.1720    1.9340    7.7110 Du      1  MOL1       -0.0593
     36 MG          1.5930    4.5980    2.6040 Du      1  MOL1        0.0723
     37 MG          1.5940    4.6320    7.6230 Du      1  MOL1        0.3050
     38 MG          0.0000    7.3560    2.6040 Du      1  MOL1       -0.0282
     39 MG         -0.0020    7.3440    7.7490 Du      1  MOL1       -0.0953
     40 MG          6.3710    1.8390    2.6040 Du      1  MOL1       -0.0272
     41 MG          6.3190    1.8720    7.6930 Du      1  MOL1        0.1156
     42 MG          4.7780    4.5980    2.6040 Du      1  MOL1       -0.0037
     43 MG          4.7610    4.6150    7.7510 Du      1  MOL1        0.1201
     44 MG          3.1850    7.3560    2.6040 Du      1  MOL1        0.0568
     45 MG          3.1950    7.3750    7.7910 Du      1  MOL1       -0.1137
     46  O         -4.7750    8.2720   12.9320 O.3     1  MOL1        1.3173
     47  O         -1.8260    7.9750   13.4700 O.3     1  MOL1        1.2459
     48  O          7.3400    1.8430   13.5680 O.3     1  MOL1        1.2084
     49  O          4.5240    2.2460   13.0580 O.3     1  MOL1        1.3085
     50  O          4.4080    4.7190   11.5050 O.3     1  MOL1        1.5567
     51  O         -0.0310    5.8560   12.9100 O.3     1  MOL1        1.3269
     52  H          8.9140    0.5770   13.4040 H       1  MOL1       -0.6068
     53  H          0.8740    0.0510   13.3880 H       1  MOL1       -0.6049
     54  H          3.4270    0.5620   13.4030 H       1  MOL1       -0.6064
     55  H         -2.0620    7.7720   12.5190 H       1  MOL1       -0.4848
     56  H          7.7880    2.7130   13.6440 H       1  MOL1       -0.5467
     57  H          7.2710    1.7180   12.5710 H       1  MOL1       -0.4800
     58  H          4.1220    3.0870   13.3570 H       1  MOL1       -0.5730
     59  H          5.4230    2.1800   13.4800 H       1  MOL1       -0.6383
     60  H          4.5640    5.1350   12.3790 H       1  MOL1       -0.5320
     61  H          1.4730    4.6010   10.8610 H       1  MOL1        0.9632
     62  H         -0.5620    6.6130   13.2820 H       1  MOL1       -0.6325
     63  H          0.8890    5.9770   13.2180 H       1  MOL1       -0.5816
@<TRIPOS>BOND
     1    50    60    1
     2    55    47    1
     3    57    48    1
     4    51    63    1
     5    51    62    1
     6    49    58    1
     7    49    59    1
     8    48    56    1
