@<TRIPOS>MOLECULE
bader.pqr
 63 8 0 0 0
SMALL
GASTEIGER

@<TRIPOS>ATOM
      1 MG          0.0000    0.0000    0.0000 Du      1  MOL1       -0.1329
      2 MG          4.7730    8.2620    5.1670 Du      1  MOL1        0.0184
      3 MG          0.0240    0.0100   10.7980 Du      1  MOL1       -0.8602
      4 MG         -1.5930    2.7590    0.0000 Du      1  MOL1        0.0338
      5 MG          7.9630    2.7590    5.1370 Du      1  MOL1        0.1776
      6 MG          7.9030    2.7440   10.1840 Du      1  MOL1       -0.0326
      7 MG         -3.1850    5.5170    0.0000 Du      1  MOL1       -0.0524
      8 MG          6.3590    5.5080    5.1540 Du      1  MOL1        0.1498
      9 MG         -3.1580    5.5490   10.2730 Du      1  MOL1        0.0539
     10 MG          3.1850    0.0000    0.0000 Du      1  MOL1       -0.0577
     11 MG         -1.5960    8.2620    5.1360 Du      1  MOL1        0.0445
     12 MG         -1.6210    8.2440   10.0950 Du      1  MOL1        0.4958
     13 MG          1.5930    2.7590    0.0000 Du      1  MOL1       -0.0165
     14 MG          1.5900    2.7390    5.1190 Du      1  MOL1        0.1200
     15 MG          1.5250    2.6580   10.1520 Du      1  MOL1        0.2777
     16 MG         -0.0000    5.5170    0.0000 Du      1  MOL1       -0.0805
     17 MG         -0.0120    5.5120    5.1560 Du      1  MOL1       -0.0682
     18 MG         -0.1210    5.5460   10.7780 Du      1  MOL1       -0.6754
     19 MG          6.3710    0.0000    0.0000 Du      1  MOL1        0.0341
     20 MG          1.5990    8.2580    5.1460 Du      1  MOL1        0.0820
     21 MG          6.3840    0.0330   10.2250 Du      1  MOL1        0.5901
     22 MG          4.7780    2.7590    0.0000 Du      1  MOL1       -0.0794
     23 MG          4.7710    2.7670    5.1810 Du      1  MOL1       -0.0872
     24 MG          4.8050    2.6220   10.6340 Du      1  MOL1       -0.7027
     25 MG          3.1850    5.5170    0.0000 Du      1  MOL1       -0.0818
     26 MG          3.2020    5.5120    5.1790 Du      1  MOL1       -0.0292
     27 MG          3.1920    5.5270   10.6450 Du      1  MOL1       -0.9446
     28 MG          0.0000    1.8390    2.6040 Du      1  MOL1       -0.0258
     29 MG         -0.0270    1.8060    7.6900 Du      1  MOL1       -0.2255
     30 MG         -1.5930    4.5980    2.6040 Du      1  MOL1        0.0030
     31 MG         -1.5680    4.6080    7.7250 Du      1  MOL1       -0.1798
     32 MG         -3.1850    7.3560    2.6040 Du      1  MOL1       -0.0157
     33 MG         -3.2150    7.3370    7.6760 Du      1  MOL1        0.0607
     34 MG          3.1850    1.8390    2.6040 Du      1  MOL1        0.0480
     35 MG          3.1890    1.8520    7.6890 Du      1  MOL1       -0.0945
     36 MG          1.5930    4.5980    2.6040 Du      1  MOL1        0.0244
     37 MG          1.5940    4.5860    7.6540 Du      1  MOL1        0.1375
     38 MG          0.0000    7.3560    2.6040 Du      1  MOL1        0.0257
     39 MG          0.0260    7.3030    7.7070 Du      1  MOL1        0.0356
     40 MG          6.3710    1.8390    2.6040 Du      1  MOL1       -0.0754
     41 MG          6.3490    1.8210    7.6700 Du      1  MOL1        0.0638
     42 MG          4.7780    4.5980    2.6040 Du      1  MOL1        0.0115
     43 MG          4.7430    4.5460    7.8810 Du      1  MOL1       -0.1940
     44 MG          3.1850    7.3560    2.6040 Du      1  MOL1        0.0193
     45 MG          3.2140    7.3070    7.8330 Du      1  MOL1       -0.0992
     46  O         -4.7290    8.2540   12.9150 O.3     1  MOL1        1.3772
     47  O         -1.9130    8.1440   13.5040 O.3     1  MOL1        1.2216
     48  O          7.5310    1.7670   13.5840 O.3     1  MOL1        1.2340
     49  O          4.3080    2.8140   12.6820 O.3     1  MOL1        1.3760
     50  O          3.1570    5.1400   12.6180 O.3     1  MOL1        1.3682
     51  O          0.4200    5.6790   12.7970 O.3     1  MOL1        1.3362
     52  H          8.9690    0.6020   13.3560 H       1  MOL1       -0.6450
     53  H          0.9400    0.0510   13.3450 H       1  MOL1       -0.6450
     54  H          3.2800    0.7400   13.3200 H       1  MOL1       -0.5838
     55  H         -1.9180    7.6990   12.6180 H       1  MOL1       -0.5130
     56  H          7.9150    2.6680   13.6060 H       1  MOL1       -0.5917
     57  H          7.2320    1.6670   12.6390 H       1  MOL1       -0.5079
     58  H          3.8400    3.7470   12.7960 H       1  MOL1       -0.6342
     59  H          5.0550    2.7580   13.3120 H       1  MOL1       -0.6174
     60  H          3.7440    5.7560   13.0990 H       1  MOL1       -0.5736
     61  H          1.5090    4.5310   10.5440 H       1  MOL1        0.9485
     62  H          0.0830    6.4250   13.3320 H       1  MOL1       -0.6089
     63  H          1.4090    5.5580   12.9570 H       1  MOL1       -0.6374
@<TRIPOS>BOND
     1    50    60    1
     2    55    47    1
     3    57    48    1
     4    49    58    1
     5    49    59    1
     6    51    63    1
     7    51    62    1
     8    48    56    1
