@<TRIPOS>MOLECULE
bader.pqr
 63 9 0 0 0
SMALL
GASTEIGER

@<TRIPOS>ATOM
      1 MG          0.0000    0.0000    0.0000 Du      1  MOL1       -0.0941
      2 MG          4.7690    8.2720    5.1510 Du      1  MOL1       -0.0695
      3 MG          9.5380    0.0040   10.7290 Du      1  MOL1       -0.6469
      4 MG         -1.5930    2.7590    0.0000 Du      1  MOL1       -0.0102
      5 MG          7.9640    2.7530    5.1340 Du      1  MOL1        0.2058
      6 MG          7.9360    2.7470   10.1030 Du      1  MOL1        0.3601
      7 MG         -3.1850    5.5170    0.0000 Du      1  MOL1       -0.0621
      8 MG          6.3670    5.4980    5.1290 Du      1  MOL1        0.0694
      9 MG         -3.1950    5.5350   10.1990 Du      1  MOL1        0.1407
     10 MG          3.1850    0.0000    0.0000 Du      1  MOL1        0.0609
     11 MG         -1.5880    8.2720    5.1240 Du      1  MOL1        0.1967
     12 MG         -1.6440    8.2540   10.0440 Du      1  MOL1        0.7028
     13 MG          1.5930    2.7590    0.0000 Du      1  MOL1        0.0083
     14 MG          1.5900    2.7570    5.1390 Du      1  MOL1        0.1239
     15 MG          1.5220    2.7560   10.2400 Du      1  MOL1        0.2282
     16 MG         -0.0000    5.5170    0.0000 Du      1  MOL1       -0.0893
     17 MG         -0.0010    5.5090    5.1590 Du      1  MOL1       -0.1134
     18 MG         -0.0920    5.4990   10.7620 Du      1  MOL1       -0.5317
     19 MG          6.3710    0.0000    0.0000 Du      1  MOL1        0.0044
     20 MG          1.5950    8.2620    5.1300 Du      1  MOL1        0.1278
     21 MG          1.5860    8.2300   10.2110 Du      1  MOL1        0.1553
     22 MG          4.7780    2.7590    0.0000 Du      1  MOL1       -0.0673
     23 MG          4.7730    2.7550    5.1590 Du      1  MOL1       -0.0126
     24 MG          4.7800    2.6390   10.5320 Du      1  MOL1       -0.5666
     25 MG          3.1850    5.5170    0.0000 Du      1  MOL1       -0.0948
     26 MG          3.1890    5.5100    5.1650 Du      1  MOL1       -0.0208
     27 MG          3.2070    5.5020   10.2970 Du      1  MOL1       -0.3515
     28 MG          0.0000    1.8390    2.6040 Du      1  MOL1       -0.0083
     29 MG          0.0120    1.7980    7.6910 Du      1  MOL1       -0.2052
     30 MG         -1.5930    4.5980    2.6040 Du      1  MOL1       -0.0209
     31 MG         -1.5730    4.6160    7.6890 Du      1  MOL1       -0.2743
     32 MG         -3.1850    7.3560    2.6040 Du      1  MOL1       -0.0595
     33 MG         -3.2100    7.3340    7.6150 Du      1  MOL1        0.3538
     34 MG          3.1850    1.8390    2.6040 Du      1  MOL1       -0.0261
     35 MG          3.1840    1.8610    7.6760 Du      1  MOL1        0.1617
     36 MG          1.5930    4.5980    2.6040 Du      1  MOL1       -0.0184
     37 MG          1.5760    4.6080    7.7240 Du      1  MOL1       -0.1625
     38 MG          0.0000    7.3560    2.6040 Du      1  MOL1        0.0489
     39 MG          0.0100    7.3220    7.6690 Du      1  MOL1        0.2897
     40 MG          6.3710    1.8390    2.6040 Du      1  MOL1       -0.0781
     41 MG          6.3420    1.8130    7.6540 Du      1  MOL1       -0.2218
     42 MG          4.7780    4.5980    2.6040 Du      1  MOL1       -0.0108
     43 MG          4.7740    4.5510    7.7400 Du      1  MOL1       -0.1886
     44 MG          3.1850    7.3560    2.6040 Du      1  MOL1       -0.0114
     45 MG          3.2140    7.3470    7.7340 Du      1  MOL1       -0.1571
     46  O          4.6190    8.2640   12.9260 O.3     1  MOL1        1.3313
     47  O         -2.0360    8.0260   13.4290 O.3     1  MOL1        1.2422
     48  O          7.3710    2.0460   13.3940 O.3     1  MOL1        1.2369
     49  O          4.6100    2.6620   12.7210 O.3     1  MOL1        1.3549
     50  O          3.1770    5.0830   12.6010 O.3     1  MOL1        1.3372
     51  O         -0.4890    5.7120   12.9320 O.3     1  MOL1        1.3388
     52  H          8.8230    0.6990   13.3050 H       1  MOL1       -0.6228
     53  H          0.7080    0.0140   13.3950 H       1  MOL1       -0.6055
     54  H          3.2630    0.5840   13.4610 H       1  MOL1       -0.6001
     55  H         -2.2390    7.9350   12.4500 H       1  MOL1       -0.4799
     56  H          7.8270    2.9130   13.3130 H       1  MOL1       -0.5803
     57  H          7.2490    1.7750   12.4320 H       1  MOL1       -0.4713
     58  H          4.2260    3.5360   12.9730 H       1  MOL1       -0.6305
     59  H          5.4820    2.5660   13.1780 H       1  MOL1       -0.6203
     60  H          3.1190    5.9610   13.0420 H       1  MOL1       -0.5909
     61  H          2.2450    4.7510   12.4560 H       1  MOL1       -0.5042
     62  H         -0.9730    6.5300   13.2370 H       1  MOL1       -0.6278
     63  H          0.1830    5.5100   13.6120 H       1  MOL1       -0.5723
@<TRIPOS>BOND
     1    57    48    1
     2    55    47    1
     3    61    50    1
     4    50    60    1
     5    49    58    1
     6    49    59    1
     7    51    62    1
     8    51    63    1
     9    56    48    1
