@<TRIPOS>MOLECULE
bader.pqr
 63 9 0 0 0
SMALL
GASTEIGER

@<TRIPOS>ATOM
      1 MG          0.0000    0.0000    0.0000 Du      1  MOL1       -0.1062
      2 MG          9.5400    0.0140    5.1610 Du      1  MOL1        0.0669
      3 MG         -0.0300    0.0760   10.7780 Du      1  MOL1       -0.8366
      4 MG         -1.5930    2.7590    0.0000 Du      1  MOL1        0.0231
      5 MG         -1.6000    2.7750    5.1400 Du      1  MOL1        0.0809
      6 MG          7.8210    2.8410   10.1930 Du      1  MOL1        0.1298
      7 MG         -3.1850    5.5170    0.0000 Du      1  MOL1       -0.0671
      8 MG         -3.1950    5.5380    5.1490 Du      1  MOL1        0.0633
      9 MG         -3.1110    5.6850   10.1730 Du      1  MOL1        0.3374
     10 MG          3.1850    0.0000    0.0000 Du      1  MOL1       -0.0293
     11 MG          3.1870    0.0150    5.1290 Du      1  MOL1        0.0945
     12 MG          3.1350    0.1410   10.0900 Du      1  MOL1        0.4283
     13 MG          1.5930    2.7590    0.0000 Du      1  MOL1       -0.0281
     14 MG          1.5770    2.7560    5.1260 Du      1  MOL1        0.0673
     15 MG          1.4480    2.7520   10.1820 Du      1  MOL1        0.2293
     16 MG         -0.0000    5.5170    0.0000 Du      1  MOL1       -0.0851
     17 MG         -0.0150    5.5440    5.1500 Du      1  MOL1       -0.0539
     18 MG         -0.1510    5.6630   10.7710 Du      1  MOL1       -0.7345
     19 MG          6.3710    0.0000    0.0000 Du      1  MOL1        0.0036
     20 MG          6.3640    0.0010    5.1490 Du      1  MOL1        0.0661
     21 MG          6.3510    0.1190   10.2480 Du      1  MOL1        0.0663
     22 MG          4.7780    2.7590    0.0000 Du      1  MOL1       -0.0889
     23 MG          4.7660    2.7860    5.1750 Du      1  MOL1       -0.1285
     24 MG          4.7100    2.8450   10.8860 Du      1  MOL1       -0.9941
     25 MG          3.1850    5.5170    0.0000 Du      1  MOL1       -0.0566
     26 MG          3.2030    5.5370    5.1510 Du      1  MOL1        0.0113
     27 MG          3.0690    5.6110   10.4110 Du      1  MOL1       -0.6491
     28 MG          0.0000    1.8390    2.6040 Du      1  MOL1       -0.0486
     29 MG         -0.0550    1.8410    7.7170 Du      1  MOL1       -0.2143
     30 MG         -1.5930    4.5980    2.6040 Du      1  MOL1        0.0410
     31 MG         -1.5560    4.6360    7.7050 Du      1  MOL1       -0.0583
     32 MG         -3.1850    7.3560    2.6040 Du      1  MOL1        0.0091
     33 MG         -3.2160    7.4180    7.6560 Du      1  MOL1       -0.0320
     34 MG          3.1850    1.8390    2.6040 Du      1  MOL1       -0.0001
     35 MG          3.1770    1.9390    7.7020 Du      1  MOL1       -0.0702
     36 MG          1.5930    4.5980    2.6040 Du      1  MOL1        0.0607
     37 MG          1.6060    4.6310    7.6270 Du      1  MOL1        0.2768
     38 MG          0.0000    7.3560    2.6040 Du      1  MOL1       -0.0090
     39 MG          0.0000    7.3410    7.7420 Du      1  MOL1       -0.1239
     40 MG          6.3710    1.8390    2.6040 Du      1  MOL1       -0.0549
     41 MG          6.3220    1.8600    7.6810 Du      1  MOL1        0.1706
     42 MG          4.7780    4.5980    2.6040 Du      1  MOL1       -0.0126
     43 MG          4.7680    4.6090    7.8030 Du      1  MOL1       -0.0922
     44 MG          3.1850    7.3560    2.6040 Du      1  MOL1        0.0412
     45 MG          3.1990    7.3600    7.8060 Du      1  MOL1       -0.1726
     46  O          0.0130    0.0110   12.9270 O.3     1  MOL1        1.3364
     47  O         -1.8010    7.9880   13.4620 O.3     1  MOL1        1.2630
     48  O          7.3860    1.8290   13.5720 O.3     1  MOL1        1.2001
     49  O          4.4810    2.2310   13.0670 O.3     1  MOL1        1.3238
     50  O          3.9830    4.5610   11.8730 O.3     1  MOL1        1.4955
     51  O         -0.0080    5.8650   12.8970 O.3     1  MOL1        1.3372
     52  H          8.9200    0.5920   13.3960 H       1  MOL1       -0.6377
     53  H          0.8790    0.0520   13.3930 H       1  MOL1       -0.6018
     54  H          3.4310    0.5890   13.3980 H       1  MOL1       -0.6280
     55  H         -2.0430    7.7830   12.5170 H       1  MOL1       -0.4980
     56  H          7.8150    2.7070   13.6430 H       1  MOL1       -0.5789
     57  H          7.2680    1.7190   12.5810 H       1  MOL1       -0.4572
     58  H          4.1190    3.1530   13.1460 H       1  MOL1       -0.6161
     59  H          5.3640    2.2090   13.5080 H       1  MOL1       -0.6243
     60  H          4.5690    5.1690   12.3710 H       1  MOL1       -0.5353
     61  H          1.4380    4.5920   10.7830 H       1  MOL1        0.9435
     62  H         -0.5260    6.6260   13.2790 H       1  MOL1       -0.6413
     63  H          0.9050    5.9320   13.2390 H       1  MOL1       -0.6017
@<TRIPOS>BOND
     1    50    60    1
     2    55    47    1
     3    57    48    1
     4    51    63    1
     5    51    62    1
     6    46    53    1
     7    49    58    1
     8    49    59    1
     9    48    56    1
