@<TRIPOS>MOLECULE
bader.pqr
 63 8 0 0 0
SMALL
GASTEIGER

@<TRIPOS>ATOM
      1 MG          0.0000    0.0000    0.0000 Du      1  MOL1       -0.1304
      2 MG          4.7760    8.2580    5.1720 Du      1  MOL1        0.0255
      3 MG          0.0170    0.0010   10.7640 Du      1  MOL1       -0.8861
      4 MG         -1.5930    2.7590    0.0000 Du      1  MOL1        0.0362
      5 MG          7.9630    2.7580    5.1340 Du      1  MOL1        0.1830
      6 MG          7.9060    2.7340   10.1820 Du      1  MOL1       -0.0310
      7 MG         -3.1850    5.5170    0.0000 Du      1  MOL1       -0.0557
      8 MG          6.3590    5.5080    5.1590 Du      1  MOL1        0.1197
      9 MG         -3.1440    5.5320   10.2810 Du      1  MOL1        0.0251
     10 MG          3.1850    0.0000    0.0000 Du      1  MOL1       -0.0666
     11 MG         -1.5980    8.2600    5.1420 Du      1  MOL1        0.0339
     12 MG         -1.6030    8.2180   10.1400 Du      1  MOL1        0.3656
     13 MG          1.5930    2.7590    0.0000 Du      1  MOL1       -0.0217
     14 MG          1.5940    2.7390    5.1230 Du      1  MOL1        0.1054
     15 MG          1.5280    2.6350   10.1460 Du      1  MOL1        0.3876
     16 MG         -0.0000    5.5170    0.0000 Du      1  MOL1       -0.0846
     17 MG         -0.0080    5.5080    5.1610 Du      1  MOL1       -0.0681
     18 MG         -0.1130    5.5150   10.8160 Du      1  MOL1       -0.6903
     19 MG          6.3710    0.0000    0.0000 Du      1  MOL1        0.0413
     20 MG          1.5990    8.2560    5.1460 Du      1  MOL1        0.1026
     21 MG          6.3660    0.0360   10.2290 Du      1  MOL1        0.5438
     22 MG          4.7780    2.7590    0.0000 Du      1  MOL1       -0.0777
     23 MG          4.7700    2.7640    5.1800 Du      1  MOL1       -0.0653
     24 MG          4.8000    2.6330   10.6330 Du      1  MOL1       -0.6899
     25 MG          3.1850    5.5170    0.0000 Du      1  MOL1       -0.0780
     26 MG          3.1990    5.5090    5.1810 Du      1  MOL1       -0.0011
     27 MG          3.2100    5.5350   10.5570 Du      1  MOL1       -0.8258
     28 MG          0.0000    1.8390    2.6040 Du      1  MOL1       -0.0061
     29 MG         -0.0250    1.8090    7.6810 Du      1  MOL1       -0.1940
     30 MG         -1.5930    4.5980    2.6040 Du      1  MOL1        0.0008
     31 MG         -1.5680    4.6050    7.7240 Du      1  MOL1       -0.1380
     32 MG         -3.1850    7.3560    2.6040 Du      1  MOL1       -0.0197
     33 MG         -3.2110    7.3400    7.6990 Du      1  MOL1        0.0990
     34 MG          3.1850    1.8390    2.6040 Du      1  MOL1        0.0533
     35 MG          3.1980    1.8400    7.7020 Du      1  MOL1       -0.1494
     36 MG          1.5930    4.5980    2.6040 Du      1  MOL1        0.0103
     37 MG          1.5990    4.5840    7.6740 Du      1  MOL1        0.0249
     38 MG          0.0000    7.3560    2.6040 Du      1  MOL1        0.0333
     39 MG          0.0230    7.3030    7.7090 Du      1  MOL1        0.0650
     40 MG          6.3710    1.8390    2.6040 Du      1  MOL1       -0.0845
     41 MG          6.3500    1.8210    7.6670 Du      1  MOL1        0.1379
     42 MG          4.7780    4.5980    2.6040 Du      1  MOL1        0.0160
     43 MG          4.7520    4.5460    7.8660 Du      1  MOL1       -0.2338
     44 MG          3.1850    7.3560    2.6040 Du      1  MOL1        0.0229
     45 MG          3.2090    7.3150    7.8270 Du      1  MOL1       -0.1403
     46  O          4.7920    8.2380   12.8690 O.3     1  MOL1        1.3808
     47  O          2.7010    0.0680   13.5630 O.3     1  MOL1        1.2259
     48  O          7.5550    1.7880   13.5820 O.3     1  MOL1        1.2236
     49  O          4.2700    2.8820   12.6790 O.3     1  MOL1        1.3711
     50  O          3.1250    5.2000   12.5520 O.3     1  MOL1        1.3502
     51  O          0.5510    5.5140   12.7810 O.3     1  MOL1        1.3686
     52  H          8.9390    0.5970   13.3020 H       1  MOL1       -0.6391
     53  H          0.9190    0.0760   13.2770 H       1  MOL1       -0.6457
     54  H          3.1160    0.9310   13.3440 H       1  MOL1       -0.6037
     55  H         -1.8650    7.7770   12.7800 H       1  MOL1       -0.5176
     56  H          7.9670    2.6760   13.5780 H       1  MOL1       -0.5812
     57  H          7.2070    1.6910   12.6540 H       1  MOL1       -0.5114
     58  H          3.8080    3.8150   12.7680 H       1  MOL1       -0.6456
     59  H          5.0080    2.8470   13.3200 H       1  MOL1       -0.6029
     60  H          3.6440    5.8650   13.0460 H       1  MOL1       -0.5710
     61  H          1.5250    4.5440   10.4010 H       1  MOL1        0.9618
     62  H          0.2820    6.2320   13.3850 H       1  MOL1       -0.6126
     63  H          1.5800    5.4090   12.8370 H       1  MOL1       -0.6460
@<TRIPOS>BOND
     1    50    60    1
     2    57    48    1
     3    49    58    1
     4    49    59    1
     5    51    63    1
     6    51    62    1
     7    54    47    1
     8    56    48    1
